*SPEF "IEEE 1481-1998"
*DESIGN "ALT_MULTADD"
*DATE "Fri Oct  9 16:26:32 2015"
*VENDOR "Silicon Perspective, A Cadence Company"
*PROGRAM "Encounter"
*VERSION "10.12-s181_1"
*DESIGN_FLOW "COUPLING C" "PIN_CAP NONE" "NAME_SCOPE LOCAL"
*DIVIDER /
*DELIMITER :
*BUS_DELIMITER []
*T_UNIT 1 NS
*C_UNIT 1 PF
*R_UNIT 1 OHM
*L_UNIT 1 HENRY

*NAME_MAP

*1 mul_25_35/n_0
*2 mul_25_35/n_10
*3 mul_25_35/n_100
*4 mul_25_35/n_101
*5 mul_25_35/n_102
*6 mul_25_35/n_103
*7 mul_25_35/n_104
*8 mul_25_35/n_105
*9 mul_25_35/n_106
*10 mul_25_35/n_107
*11 mul_25_35/n_108
*12 mul_25_35/n_11
*13 mul_25_35/n_110
*14 mul_25_35/n_111
*15 mul_25_35/n_114
*16 mul_25_35/n_115
*17 mul_25_35/n_116
*18 mul_25_35/n_117
*19 mul_25_35/n_118
*20 mul_25_35/n_119
*21 mul_25_35/n_12
*22 mul_25_35/n_120
*23 mul_25_35/n_123
*24 mul_25_35/n_124
*25 mul_25_35/n_125
*26 mul_25_35/n_126
*27 mul_25_35/n_127
*28 mul_25_35/n_128
*29 mul_25_35/n_13
*30 mul_25_35/n_131
*31 mul_25_35/n_132
*32 mul_25_35/n_136
*33 mul_25_35/n_137
*34 mul_25_35/n_138
*35 mul_25_35/n_139
*36 mul_25_35/n_14
*37 mul_25_35/n_140
*38 mul_25_35/n_144
*39 mul_25_35/n_145
*40 mul_25_35/n_15
*41 mul_25_35/n_151
*42 mul_25_35/n_152
*43 mul_25_35/n_153
*44 mul_25_35/n_154
*45 mul_25_35/n_155
*46 mul_25_35/n_156
*47 mul_25_35/n_157
*48 mul_25_35/n_158
*49 mul_25_35/n_16
*50 mul_25_35/n_161
*51 mul_25_35/n_164
*52 mul_25_35/n_165
*53 mul_25_35/n_17
*54 mul_25_35/n_170
*55 mul_25_35/n_172
*56 mul_25_35/n_173
*57 mul_25_35/n_174
*58 mul_25_35/n_175
*59 mul_25_35/n_176
*60 mul_25_35/n_178
*61 mul_25_35/n_179
*62 mul_25_35/n_18
*63 mul_25_35/n_183
*64 mul_25_35/n_184
*65 mul_25_35/n_186
*66 mul_25_35/n_187
*67 mul_25_35/n_188
*68 mul_25_35/n_189
*69 mul_25_35/n_19
*70 mul_25_35/n_191
*71 mul_25_35/n_192
*72 mul_25_35/n_194
*73 mul_25_35/n_195
*74 mul_25_35/n_20
*75 mul_25_35/n_21
*76 mul_25_35/n_215
*77 mul_25_35/n_217
*78 mul_25_35/n_218
*79 mul_25_35/n_220
*80 mul_25_35/n_222
*81 mul_25_35/n_224
*82 mul_25_35/n_225
*83 mul_25_35/n_226
*84 mul_25_35/n_227
*85 mul_25_35/n_228
*86 mul_25_35/n_229
*87 mul_25_35/n_23
*88 mul_25_35/n_230
*89 mul_25_35/n_231
*90 mul_25_35/n_232
*91 mul_25_35/n_233
*92 mul_25_35/n_234
*93 mul_25_35/n_235
*94 mul_25_35/n_24
*95 mul_25_35/n_25
*96 mul_25_35/n_26
*97 mul_25_35/n_27
*98 mul_25_35/n_28
*99 mul_25_35/n_29
*100 mul_25_35/n_30
*101 mul_25_35/n_31
*102 mul_25_35/n_32
*103 mul_25_35/n_33
*104 mul_25_35/n_34
*105 mul_25_35/n_35
*106 mul_25_35/n_36
*107 mul_25_35/n_37
*108 mul_25_35/n_38
*109 mul_25_35/n_39
*110 mul_25_35/n_4
*111 mul_25_35/n_40
*112 mul_25_35/n_41
*113 mul_25_35/n_42
*114 mul_25_35/n_43
*115 mul_25_35/n_44
*116 mul_25_35/n_45
*117 mul_25_35/n_46
*118 mul_25_35/n_47
*119 mul_25_35/n_48
*120 mul_25_35/n_49
*121 mul_25_35/n_50
*122 mul_25_35/n_51
*123 mul_25_35/n_52
*124 mul_25_35/n_53
*125 mul_25_35/n_54
*126 mul_25_35/n_55
*127 mul_25_35/n_56
*128 mul_25_35/n_57
*129 mul_25_35/n_58
*130 mul_25_35/n_59
*131 mul_25_35/n_6
*132 mul_25_35/n_60
*133 mul_25_35/n_61
*134 mul_25_35/n_62
*135 mul_25_35/n_63
*136 mul_25_35/n_64
*137 mul_25_35/n_65
*138 mul_25_35/n_66
*139 mul_25_35/n_67
*140 mul_25_35/n_68
*141 mul_25_35/n_69
*142 mul_25_35/n_7
*143 mul_25_35/n_71
*144 mul_25_35/n_72
*145 mul_25_35/n_73
*146 mul_25_35/n_74
*147 mul_25_35/n_75
*148 mul_25_35/n_76
*149 mul_25_35/n_77
*150 mul_25_35/n_80
*151 mul_25_35/n_82
*152 mul_25_35/n_83
*153 mul_25_35/n_84
*154 mul_25_35/n_85
*155 mul_25_35/n_86
*156 mul_25_35/n_87
*157 mul_25_35/n_88
*158 mul_25_35/n_89
*159 mul_25_35/n_9
*160 mul_25_35/n_90
*161 mul_25_35/n_91
*162 mul_25_35/n_92
*163 mul_25_35/n_93
*164 mul_25_35/n_94
*165 mul_25_35/n_95
*166 mul_25_35/n_98
*167 mul_25_35/n_99
*168 final_adder_add_22_19/n_0
*169 final_adder_add_22_19/n_10
*170 final_adder_add_22_19/n_12
*171 final_adder_add_22_19/n_14
*172 final_adder_add_22_19/n_16
*173 final_adder_add_22_19/n_18
*174 final_adder_add_22_19/n_2
*175 final_adder_add_22_19/n_20
*176 final_adder_add_22_19/n_22
*177 final_adder_add_22_19/n_24
*178 final_adder_add_22_19/n_26
*179 final_adder_add_22_19/n_28
*180 final_adder_add_22_19/n_4
*181 final_adder_add_22_19/n_6
*182 final_adder_add_22_19/n_8
*183 csa_tree_mul_25_40_groupi/n_0
*184 csa_tree_mul_25_40_groupi/n_1
*185 csa_tree_mul_25_40_groupi/n_10
*186 csa_tree_mul_25_40_groupi/n_100
*187 csa_tree_mul_25_40_groupi/n_101
*188 csa_tree_mul_25_40_groupi/n_102
*189 csa_tree_mul_25_40_groupi/n_103
*190 csa_tree_mul_25_40_groupi/n_104
*191 csa_tree_mul_25_40_groupi/n_105
*192 csa_tree_mul_25_40_groupi/n_106
*193 csa_tree_mul_25_40_groupi/n_107
*194 csa_tree_mul_25_40_groupi/n_108
*195 csa_tree_mul_25_40_groupi/n_109
*196 csa_tree_mul_25_40_groupi/n_11
*197 csa_tree_mul_25_40_groupi/n_110
*198 csa_tree_mul_25_40_groupi/n_111
*199 csa_tree_mul_25_40_groupi/n_112
*200 csa_tree_mul_25_40_groupi/n_113
*201 csa_tree_mul_25_40_groupi/n_114
*202 csa_tree_mul_25_40_groupi/n_115
*203 csa_tree_mul_25_40_groupi/n_116
*204 csa_tree_mul_25_40_groupi/n_117
*205 csa_tree_mul_25_40_groupi/n_118
*206 csa_tree_mul_25_40_groupi/n_119
*207 csa_tree_mul_25_40_groupi/n_12
*208 csa_tree_mul_25_40_groupi/n_120
*209 csa_tree_mul_25_40_groupi/n_121
*210 csa_tree_mul_25_40_groupi/n_122
*211 csa_tree_mul_25_40_groupi/n_123
*212 csa_tree_mul_25_40_groupi/n_124
*213 csa_tree_mul_25_40_groupi/n_125
*214 csa_tree_mul_25_40_groupi/n_126
*215 csa_tree_mul_25_40_groupi/n_127
*216 csa_tree_mul_25_40_groupi/n_128
*217 csa_tree_mul_25_40_groupi/n_129
*218 csa_tree_mul_25_40_groupi/n_13
*219 csa_tree_mul_25_40_groupi/n_130
*220 csa_tree_mul_25_40_groupi/n_131
*221 csa_tree_mul_25_40_groupi/n_132
*222 csa_tree_mul_25_40_groupi/n_133
*223 csa_tree_mul_25_40_groupi/n_134
*224 csa_tree_mul_25_40_groupi/n_135
*225 csa_tree_mul_25_40_groupi/n_136
*226 csa_tree_mul_25_40_groupi/n_137
*227 csa_tree_mul_25_40_groupi/n_138
*228 csa_tree_mul_25_40_groupi/n_139
*229 csa_tree_mul_25_40_groupi/n_14
*230 csa_tree_mul_25_40_groupi/n_140
*231 csa_tree_mul_25_40_groupi/n_141
*232 csa_tree_mul_25_40_groupi/n_142
*233 csa_tree_mul_25_40_groupi/n_143
*234 csa_tree_mul_25_40_groupi/n_144
*235 csa_tree_mul_25_40_groupi/n_145
*236 csa_tree_mul_25_40_groupi/n_146
*237 csa_tree_mul_25_40_groupi/n_147
*238 csa_tree_mul_25_40_groupi/n_148
*239 csa_tree_mul_25_40_groupi/n_149
*240 csa_tree_mul_25_40_groupi/n_15
*241 csa_tree_mul_25_40_groupi/n_150
*242 csa_tree_mul_25_40_groupi/n_151
*243 csa_tree_mul_25_40_groupi/n_152
*244 csa_tree_mul_25_40_groupi/n_153
*245 csa_tree_mul_25_40_groupi/n_154
*246 csa_tree_mul_25_40_groupi/n_155
*247 csa_tree_mul_25_40_groupi/n_156
*248 csa_tree_mul_25_40_groupi/n_157
*249 csa_tree_mul_25_40_groupi/n_158
*250 csa_tree_mul_25_40_groupi/n_16
*251 csa_tree_mul_25_40_groupi/n_160
*252 csa_tree_mul_25_40_groupi/n_161
*253 csa_tree_mul_25_40_groupi/n_162
*254 csa_tree_mul_25_40_groupi/n_163
*255 csa_tree_mul_25_40_groupi/n_164
*256 csa_tree_mul_25_40_groupi/n_165
*257 csa_tree_mul_25_40_groupi/n_166
*258 csa_tree_mul_25_40_groupi/n_167
*259 csa_tree_mul_25_40_groupi/n_168
*260 csa_tree_mul_25_40_groupi/n_169
*261 csa_tree_mul_25_40_groupi/n_17
*262 csa_tree_mul_25_40_groupi/n_170
*263 csa_tree_mul_25_40_groupi/n_171
*264 csa_tree_mul_25_40_groupi/n_172
*265 csa_tree_mul_25_40_groupi/n_173
*266 csa_tree_mul_25_40_groupi/n_174
*267 csa_tree_mul_25_40_groupi/n_175
*268 csa_tree_mul_25_40_groupi/n_177
*269 csa_tree_mul_25_40_groupi/n_178
*270 csa_tree_mul_25_40_groupi/n_179
*271 csa_tree_mul_25_40_groupi/n_180
*272 csa_tree_mul_25_40_groupi/n_181
*273 csa_tree_mul_25_40_groupi/n_182
*274 csa_tree_mul_25_40_groupi/n_183
*275 csa_tree_mul_25_40_groupi/n_184
*276 csa_tree_mul_25_40_groupi/n_187
*277 csa_tree_mul_25_40_groupi/n_188
*278 csa_tree_mul_25_40_groupi/n_19
*279 csa_tree_mul_25_40_groupi/n_192
*280 csa_tree_mul_25_40_groupi/n_193
*281 csa_tree_mul_25_40_groupi/n_194
*282 csa_tree_mul_25_40_groupi/n_195
*283 csa_tree_mul_25_40_groupi/n_196
*284 csa_tree_mul_25_40_groupi/n_197
*285 csa_tree_mul_25_40_groupi/n_198
*286 csa_tree_mul_25_40_groupi/n_2
*287 csa_tree_mul_25_40_groupi/n_20
*288 csa_tree_mul_25_40_groupi/n_200
*289 csa_tree_mul_25_40_groupi/n_201
*290 csa_tree_mul_25_40_groupi/n_202
*291 csa_tree_mul_25_40_groupi/n_204
*292 csa_tree_mul_25_40_groupi/n_207
*293 csa_tree_mul_25_40_groupi/n_21
*294 csa_tree_mul_25_40_groupi/n_214
*295 csa_tree_mul_25_40_groupi/n_217
*296 csa_tree_mul_25_40_groupi/n_218
*297 csa_tree_mul_25_40_groupi/n_22
*298 csa_tree_mul_25_40_groupi/n_221
*299 csa_tree_mul_25_40_groupi/n_222
*300 csa_tree_mul_25_40_groupi/n_223
*301 csa_tree_mul_25_40_groupi/n_224
*302 csa_tree_mul_25_40_groupi/n_226
*303 csa_tree_mul_25_40_groupi/n_227
*304 csa_tree_mul_25_40_groupi/n_229
*305 csa_tree_mul_25_40_groupi/n_23
*306 csa_tree_mul_25_40_groupi/n_230
*307 csa_tree_mul_25_40_groupi/n_231
*308 csa_tree_mul_25_40_groupi/n_232
*309 csa_tree_mul_25_40_groupi/n_233
*310 csa_tree_mul_25_40_groupi/n_24
*311 csa_tree_mul_25_40_groupi/n_240
*312 csa_tree_mul_25_40_groupi/n_241
*313 csa_tree_mul_25_40_groupi/n_242
*314 csa_tree_mul_25_40_groupi/n_245
*315 csa_tree_mul_25_40_groupi/n_246
*316 csa_tree_mul_25_40_groupi/n_247
*317 csa_tree_mul_25_40_groupi/n_25
*318 csa_tree_mul_25_40_groupi/n_250
*319 csa_tree_mul_25_40_groupi/n_251
*320 csa_tree_mul_25_40_groupi/n_256
*321 csa_tree_mul_25_40_groupi/n_257
*322 csa_tree_mul_25_40_groupi/n_258
*323 csa_tree_mul_25_40_groupi/n_26
*324 csa_tree_mul_25_40_groupi/n_260
*325 csa_tree_mul_25_40_groupi/n_261
*326 csa_tree_mul_25_40_groupi/n_263
*327 csa_tree_mul_25_40_groupi/n_264
*328 csa_tree_mul_25_40_groupi/n_266
*329 csa_tree_mul_25_40_groupi/n_267
*330 csa_tree_mul_25_40_groupi/n_27
*331 csa_tree_mul_25_40_groupi/n_272
*332 csa_tree_mul_25_40_groupi/n_273
*333 csa_tree_mul_25_40_groupi/n_278
*334 csa_tree_mul_25_40_groupi/n_279
*335 csa_tree_mul_25_40_groupi/n_28
*336 csa_tree_mul_25_40_groupi/n_280
*337 csa_tree_mul_25_40_groupi/n_284
*338 csa_tree_mul_25_40_groupi/n_29
*339 csa_tree_mul_25_40_groupi/n_3
*340 csa_tree_mul_25_40_groupi/n_30
*341 csa_tree_mul_25_40_groupi/n_31
*342 csa_tree_mul_25_40_groupi/n_310
*343 csa_tree_mul_25_40_groupi/n_311
*344 csa_tree_mul_25_40_groupi/n_312
*345 csa_tree_mul_25_40_groupi/n_313
*346 csa_tree_mul_25_40_groupi/n_315
*347 csa_tree_mul_25_40_groupi/n_316
*348 csa_tree_mul_25_40_groupi/n_317
*349 csa_tree_mul_25_40_groupi/n_318
*350 csa_tree_mul_25_40_groupi/n_32
*351 csa_tree_mul_25_40_groupi/n_320
*352 csa_tree_mul_25_40_groupi/n_321
*353 csa_tree_mul_25_40_groupi/n_322
*354 csa_tree_mul_25_40_groupi/n_324
*355 csa_tree_mul_25_40_groupi/n_325
*356 csa_tree_mul_25_40_groupi/n_326
*357 csa_tree_mul_25_40_groupi/n_327
*358 csa_tree_mul_25_40_groupi/n_328
*359 csa_tree_mul_25_40_groupi/n_329
*360 csa_tree_mul_25_40_groupi/n_33
*361 csa_tree_mul_25_40_groupi/n_330
*362 csa_tree_mul_25_40_groupi/n_331
*363 csa_tree_mul_25_40_groupi/n_332
*364 csa_tree_mul_25_40_groupi/n_333
*365 csa_tree_mul_25_40_groupi/n_334
*366 csa_tree_mul_25_40_groupi/n_335
*367 csa_tree_mul_25_40_groupi/n_336
*368 csa_tree_mul_25_40_groupi/n_337
*369 csa_tree_mul_25_40_groupi/n_338
*370 csa_tree_mul_25_40_groupi/n_34
*371 csa_tree_mul_25_40_groupi/n_35
*372 csa_tree_mul_25_40_groupi/n_36
*373 csa_tree_mul_25_40_groupi/n_37
*374 csa_tree_mul_25_40_groupi/n_38
*375 csa_tree_mul_25_40_groupi/n_39
*376 csa_tree_mul_25_40_groupi/n_4
*377 csa_tree_mul_25_40_groupi/n_40
*378 csa_tree_mul_25_40_groupi/n_41
*379 csa_tree_mul_25_40_groupi/n_42
*380 csa_tree_mul_25_40_groupi/n_43
*381 csa_tree_mul_25_40_groupi/n_44
*382 csa_tree_mul_25_40_groupi/n_45
*383 csa_tree_mul_25_40_groupi/n_46
*384 csa_tree_mul_25_40_groupi/n_47
*385 csa_tree_mul_25_40_groupi/n_48
*386 csa_tree_mul_25_40_groupi/n_49
*387 csa_tree_mul_25_40_groupi/n_5
*388 csa_tree_mul_25_40_groupi/n_50
*389 csa_tree_mul_25_40_groupi/n_51
*390 csa_tree_mul_25_40_groupi/n_52
*391 csa_tree_mul_25_40_groupi/n_53
*392 csa_tree_mul_25_40_groupi/n_54
*393 csa_tree_mul_25_40_groupi/n_55
*394 csa_tree_mul_25_40_groupi/n_56
*395 csa_tree_mul_25_40_groupi/n_58
*396 csa_tree_mul_25_40_groupi/n_59
*397 csa_tree_mul_25_40_groupi/n_6
*398 csa_tree_mul_25_40_groupi/n_60
*399 csa_tree_mul_25_40_groupi/n_61
*400 csa_tree_mul_25_40_groupi/n_62
*401 csa_tree_mul_25_40_groupi/n_63
*402 csa_tree_mul_25_40_groupi/n_64
*403 csa_tree_mul_25_40_groupi/n_65
*404 csa_tree_mul_25_40_groupi/n_66
*405 csa_tree_mul_25_40_groupi/n_67
*406 csa_tree_mul_25_40_groupi/n_68
*407 csa_tree_mul_25_40_groupi/n_69
*408 csa_tree_mul_25_40_groupi/n_7
*409 csa_tree_mul_25_40_groupi/n_70
*410 csa_tree_mul_25_40_groupi/n_71
*411 csa_tree_mul_25_40_groupi/n_72
*412 csa_tree_mul_25_40_groupi/n_73
*413 csa_tree_mul_25_40_groupi/n_74
*414 csa_tree_mul_25_40_groupi/n_75
*415 csa_tree_mul_25_40_groupi/n_76
*416 csa_tree_mul_25_40_groupi/n_77
*417 csa_tree_mul_25_40_groupi/n_78
*418 csa_tree_mul_25_40_groupi/n_79
*419 csa_tree_mul_25_40_groupi/n_80
*420 csa_tree_mul_25_40_groupi/n_81
*421 csa_tree_mul_25_40_groupi/n_82
*422 csa_tree_mul_25_40_groupi/n_83
*423 csa_tree_mul_25_40_groupi/n_84
*424 csa_tree_mul_25_40_groupi/n_85
*425 csa_tree_mul_25_40_groupi/n_86
*426 csa_tree_mul_25_40_groupi/n_87
*427 csa_tree_mul_25_40_groupi/n_88
*428 csa_tree_mul_25_40_groupi/n_89
*429 csa_tree_mul_25_40_groupi/n_9
*430 csa_tree_mul_25_40_groupi/n_90
*431 csa_tree_mul_25_40_groupi/n_91
*432 csa_tree_mul_25_40_groupi/n_92
*433 csa_tree_mul_25_40_groupi/n_93
*434 csa_tree_mul_25_40_groupi/n_94
*435 csa_tree_mul_25_40_groupi/n_95
*436 csa_tree_mul_25_40_groupi/n_96
*437 csa_tree_mul_25_40_groupi/n_97
*438 csa_tree_mul_25_40_groupi/n_98
*439 csa_tree_mul_25_40_groupi/n_99
*440 csa_tree_add_25_30_groupi/n_0
*441 csa_tree_add_25_30_groupi/n_10
*442 csa_tree_add_25_30_groupi/n_100
*443 csa_tree_add_25_30_groupi/n_101
*444 csa_tree_add_25_30_groupi/n_102
*445 csa_tree_add_25_30_groupi/n_103
*446 csa_tree_add_25_30_groupi/n_104
*447 csa_tree_add_25_30_groupi/n_105
*448 csa_tree_add_25_30_groupi/n_106
*449 csa_tree_add_25_30_groupi/n_107
*450 csa_tree_add_25_30_groupi/n_108
*451 csa_tree_add_25_30_groupi/n_109
*452 csa_tree_add_25_30_groupi/n_11
*453 csa_tree_add_25_30_groupi/n_110
*454 csa_tree_add_25_30_groupi/n_111
*455 csa_tree_add_25_30_groupi/n_112
*456 csa_tree_add_25_30_groupi/n_113
*457 csa_tree_add_25_30_groupi/n_114
*458 csa_tree_add_25_30_groupi/n_115
*459 csa_tree_add_25_30_groupi/n_116
*460 csa_tree_add_25_30_groupi/n_117
*461 csa_tree_add_25_30_groupi/n_118
*462 csa_tree_add_25_30_groupi/n_119
*463 csa_tree_add_25_30_groupi/n_12
*464 csa_tree_add_25_30_groupi/n_120
*465 csa_tree_add_25_30_groupi/n_121
*466 csa_tree_add_25_30_groupi/n_122
*467 csa_tree_add_25_30_groupi/n_123
*468 csa_tree_add_25_30_groupi/n_124
*469 csa_tree_add_25_30_groupi/n_125
*470 csa_tree_add_25_30_groupi/n_126
*471 csa_tree_add_25_30_groupi/n_127
*472 csa_tree_add_25_30_groupi/n_128
*473 csa_tree_add_25_30_groupi/n_129
*474 csa_tree_add_25_30_groupi/n_13
*475 csa_tree_add_25_30_groupi/n_130
*476 csa_tree_add_25_30_groupi/n_131
*477 csa_tree_add_25_30_groupi/n_132
*478 csa_tree_add_25_30_groupi/n_133
*479 csa_tree_add_25_30_groupi/n_134
*480 csa_tree_add_25_30_groupi/n_135
*481 csa_tree_add_25_30_groupi/n_136
*482 csa_tree_add_25_30_groupi/n_137
*483 csa_tree_add_25_30_groupi/n_138
*484 csa_tree_add_25_30_groupi/n_139
*485 csa_tree_add_25_30_groupi/n_14
*486 csa_tree_add_25_30_groupi/n_140
*487 csa_tree_add_25_30_groupi/n_141
*488 csa_tree_add_25_30_groupi/n_142
*489 csa_tree_add_25_30_groupi/n_143
*490 csa_tree_add_25_30_groupi/n_144
*491 csa_tree_add_25_30_groupi/n_145
*492 csa_tree_add_25_30_groupi/n_146
*493 csa_tree_add_25_30_groupi/n_147
*494 csa_tree_add_25_30_groupi/n_148
*495 csa_tree_add_25_30_groupi/n_149
*496 csa_tree_add_25_30_groupi/n_15
*497 csa_tree_add_25_30_groupi/n_150
*498 csa_tree_add_25_30_groupi/n_151
*499 csa_tree_add_25_30_groupi/n_152
*500 csa_tree_add_25_30_groupi/n_153
*501 csa_tree_add_25_30_groupi/n_154
*502 csa_tree_add_25_30_groupi/n_155
*503 csa_tree_add_25_30_groupi/n_156
*504 csa_tree_add_25_30_groupi/n_157
*505 csa_tree_add_25_30_groupi/n_158
*506 csa_tree_add_25_30_groupi/n_159
*507 csa_tree_add_25_30_groupi/n_16
*508 csa_tree_add_25_30_groupi/n_160
*509 csa_tree_add_25_30_groupi/n_161
*510 csa_tree_add_25_30_groupi/n_162
*511 csa_tree_add_25_30_groupi/n_163
*512 csa_tree_add_25_30_groupi/n_165
*513 csa_tree_add_25_30_groupi/n_166
*514 csa_tree_add_25_30_groupi/n_167
*515 csa_tree_add_25_30_groupi/n_168
*516 csa_tree_add_25_30_groupi/n_17
*517 csa_tree_add_25_30_groupi/n_170
*518 csa_tree_add_25_30_groupi/n_171
*519 csa_tree_add_25_30_groupi/n_172
*520 csa_tree_add_25_30_groupi/n_173
*521 csa_tree_add_25_30_groupi/n_174
*522 csa_tree_add_25_30_groupi/n_175
*523 csa_tree_add_25_30_groupi/n_176
*524 csa_tree_add_25_30_groupi/n_177
*525 csa_tree_add_25_30_groupi/n_178
*526 csa_tree_add_25_30_groupi/n_18
*527 csa_tree_add_25_30_groupi/n_180
*528 csa_tree_add_25_30_groupi/n_181
*529 csa_tree_add_25_30_groupi/n_182
*530 csa_tree_add_25_30_groupi/n_184
*531 csa_tree_add_25_30_groupi/n_185
*532 csa_tree_add_25_30_groupi/n_186
*533 csa_tree_add_25_30_groupi/n_19
*534 csa_tree_add_25_30_groupi/n_190
*535 csa_tree_add_25_30_groupi/n_193
*536 csa_tree_add_25_30_groupi/n_194
*537 csa_tree_add_25_30_groupi/n_195
*538 csa_tree_add_25_30_groupi/n_196
*539 csa_tree_add_25_30_groupi/n_197
*540 csa_tree_add_25_30_groupi/n_198
*541 csa_tree_add_25_30_groupi/n_199
*542 csa_tree_add_25_30_groupi/n_2
*543 csa_tree_add_25_30_groupi/n_20
*544 csa_tree_add_25_30_groupi/n_200
*545 csa_tree_add_25_30_groupi/n_201
*546 csa_tree_add_25_30_groupi/n_204
*547 csa_tree_add_25_30_groupi/n_205
*548 csa_tree_add_25_30_groupi/n_206
*549 csa_tree_add_25_30_groupi/n_207
*550 csa_tree_add_25_30_groupi/n_208
*551 csa_tree_add_25_30_groupi/n_209
*552 csa_tree_add_25_30_groupi/n_21
*553 csa_tree_add_25_30_groupi/n_210
*554 csa_tree_add_25_30_groupi/n_211
*555 csa_tree_add_25_30_groupi/n_212
*556 csa_tree_add_25_30_groupi/n_214
*557 csa_tree_add_25_30_groupi/n_215
*558 csa_tree_add_25_30_groupi/n_216
*559 csa_tree_add_25_30_groupi/n_217
*560 csa_tree_add_25_30_groupi/n_218
*561 csa_tree_add_25_30_groupi/n_219
*562 csa_tree_add_25_30_groupi/n_22
*563 csa_tree_add_25_30_groupi/n_225
*564 csa_tree_add_25_30_groupi/n_226
*565 csa_tree_add_25_30_groupi/n_23
*566 csa_tree_add_25_30_groupi/n_231
*567 csa_tree_add_25_30_groupi/n_232
*568 csa_tree_add_25_30_groupi/n_235
*569 csa_tree_add_25_30_groupi/n_237
*570 csa_tree_add_25_30_groupi/n_238
*571 csa_tree_add_25_30_groupi/n_239
*572 csa_tree_add_25_30_groupi/n_24
*573 csa_tree_add_25_30_groupi/n_240
*574 csa_tree_add_25_30_groupi/n_241
*575 csa_tree_add_25_30_groupi/n_242
*576 csa_tree_add_25_30_groupi/n_248
*577 csa_tree_add_25_30_groupi/n_249
*578 csa_tree_add_25_30_groupi/n_25
*579 csa_tree_add_25_30_groupi/n_252
*580 csa_tree_add_25_30_groupi/n_254
*581 csa_tree_add_25_30_groupi/n_255
*582 csa_tree_add_25_30_groupi/n_259
*583 csa_tree_add_25_30_groupi/n_26
*584 csa_tree_add_25_30_groupi/n_265
*585 csa_tree_add_25_30_groupi/n_267
*586 csa_tree_add_25_30_groupi/n_268
*587 csa_tree_add_25_30_groupi/n_269
*588 csa_tree_add_25_30_groupi/n_27
*589 csa_tree_add_25_30_groupi/n_270
*590 csa_tree_add_25_30_groupi/n_271
*591 csa_tree_add_25_30_groupi/n_272
*592 csa_tree_add_25_30_groupi/n_275
*593 csa_tree_add_25_30_groupi/n_276
*594 csa_tree_add_25_30_groupi/n_277
*595 csa_tree_add_25_30_groupi/n_278
*596 csa_tree_add_25_30_groupi/n_279
*597 csa_tree_add_25_30_groupi/n_28
*598 csa_tree_add_25_30_groupi/n_280
*599 csa_tree_add_25_30_groupi/n_283
*600 csa_tree_add_25_30_groupi/n_286
*601 csa_tree_add_25_30_groupi/n_287
*602 csa_tree_add_25_30_groupi/n_288
*603 csa_tree_add_25_30_groupi/n_289
*604 csa_tree_add_25_30_groupi/n_29
*605 csa_tree_add_25_30_groupi/n_290
*606 csa_tree_add_25_30_groupi/n_291
*607 csa_tree_add_25_30_groupi/n_292
*608 csa_tree_add_25_30_groupi/n_293
*609 csa_tree_add_25_30_groupi/n_294
*610 csa_tree_add_25_30_groupi/n_295
*611 csa_tree_add_25_30_groupi/n_296
*612 csa_tree_add_25_30_groupi/n_297
*613 csa_tree_add_25_30_groupi/n_298
*614 csa_tree_add_25_30_groupi/n_3
*615 csa_tree_add_25_30_groupi/n_30
*616 csa_tree_add_25_30_groupi/n_302
*617 csa_tree_add_25_30_groupi/n_303
*618 csa_tree_add_25_30_groupi/n_304
*619 csa_tree_add_25_30_groupi/n_305
*620 csa_tree_add_25_30_groupi/n_306
*621 csa_tree_add_25_30_groupi/n_307
*622 csa_tree_add_25_30_groupi/n_31
*623 csa_tree_add_25_30_groupi/n_311
*624 csa_tree_add_25_30_groupi/n_312
*625 csa_tree_add_25_30_groupi/n_313
*626 csa_tree_add_25_30_groupi/n_314
*627 csa_tree_add_25_30_groupi/n_315
*628 csa_tree_add_25_30_groupi/n_318
*629 csa_tree_add_25_30_groupi/n_32
*630 csa_tree_add_25_30_groupi/n_320
*631 csa_tree_add_25_30_groupi/n_324
*632 csa_tree_add_25_30_groupi/n_325
*633 csa_tree_add_25_30_groupi/n_326
*634 csa_tree_add_25_30_groupi/n_327
*635 csa_tree_add_25_30_groupi/n_33
*636 csa_tree_add_25_30_groupi/n_330
*637 csa_tree_add_25_30_groupi/n_332
*638 csa_tree_add_25_30_groupi/n_333
*639 csa_tree_add_25_30_groupi/n_338
*640 csa_tree_add_25_30_groupi/n_339
*641 csa_tree_add_25_30_groupi/n_34
*642 csa_tree_add_25_30_groupi/n_341
*643 csa_tree_add_25_30_groupi/n_343
*644 csa_tree_add_25_30_groupi/n_345
*645 csa_tree_add_25_30_groupi/n_347
*646 csa_tree_add_25_30_groupi/n_35
*647 csa_tree_add_25_30_groupi/n_36
*648 csa_tree_add_25_30_groupi/n_37
*649 csa_tree_add_25_30_groupi/n_38
*650 csa_tree_add_25_30_groupi/n_39
*651 csa_tree_add_25_30_groupi/n_4
*652 csa_tree_add_25_30_groupi/n_40
*653 csa_tree_add_25_30_groupi/n_409
*654 csa_tree_add_25_30_groupi/n_41
*655 csa_tree_add_25_30_groupi/n_410
*656 csa_tree_add_25_30_groupi/n_413
*657 csa_tree_add_25_30_groupi/n_414
*658 csa_tree_add_25_30_groupi/n_415
*659 csa_tree_add_25_30_groupi/n_416
*660 csa_tree_add_25_30_groupi/n_417
*661 csa_tree_add_25_30_groupi/n_418
*662 csa_tree_add_25_30_groupi/n_419
*663 csa_tree_add_25_30_groupi/n_42
*664 csa_tree_add_25_30_groupi/n_424
*665 csa_tree_add_25_30_groupi/n_425
*666 csa_tree_add_25_30_groupi/n_428
*667 csa_tree_add_25_30_groupi/n_429
*668 csa_tree_add_25_30_groupi/n_43
*669 csa_tree_add_25_30_groupi/n_430
*670 csa_tree_add_25_30_groupi/n_432
*671 csa_tree_add_25_30_groupi/n_433
*672 csa_tree_add_25_30_groupi/n_435
*673 csa_tree_add_25_30_groupi/n_436
*674 csa_tree_add_25_30_groupi/n_437
*675 csa_tree_add_25_30_groupi/n_439
*676 csa_tree_add_25_30_groupi/n_44
*677 csa_tree_add_25_30_groupi/n_440
*678 csa_tree_add_25_30_groupi/n_441
*679 csa_tree_add_25_30_groupi/n_442
*680 csa_tree_add_25_30_groupi/n_443
*681 csa_tree_add_25_30_groupi/n_444
*682 csa_tree_add_25_30_groupi/n_445
*683 csa_tree_add_25_30_groupi/n_446
*684 csa_tree_add_25_30_groupi/n_447
*685 csa_tree_add_25_30_groupi/n_448
*686 csa_tree_add_25_30_groupi/n_449
*687 csa_tree_add_25_30_groupi/n_45
*688 csa_tree_add_25_30_groupi/n_450
*689 csa_tree_add_25_30_groupi/n_451
*690 csa_tree_add_25_30_groupi/n_46
*691 csa_tree_add_25_30_groupi/n_47
*692 csa_tree_add_25_30_groupi/n_48
*693 csa_tree_add_25_30_groupi/n_49
*694 csa_tree_add_25_30_groupi/n_5
*695 csa_tree_add_25_30_groupi/n_50
*696 csa_tree_add_25_30_groupi/n_51
*697 csa_tree_add_25_30_groupi/n_52
*698 csa_tree_add_25_30_groupi/n_53
*699 csa_tree_add_25_30_groupi/n_54
*700 csa_tree_add_25_30_groupi/n_55
*701 csa_tree_add_25_30_groupi/n_56
*702 csa_tree_add_25_30_groupi/n_57
*703 csa_tree_add_25_30_groupi/n_58
*704 csa_tree_add_25_30_groupi/n_59
*705 csa_tree_add_25_30_groupi/n_6
*706 csa_tree_add_25_30_groupi/n_60
*707 csa_tree_add_25_30_groupi/n_61
*708 csa_tree_add_25_30_groupi/n_62
*709 csa_tree_add_25_30_groupi/n_63
*710 csa_tree_add_25_30_groupi/n_64
*711 csa_tree_add_25_30_groupi/n_65
*712 csa_tree_add_25_30_groupi/n_66
*713 csa_tree_add_25_30_groupi/n_67
*714 csa_tree_add_25_30_groupi/n_68
*715 csa_tree_add_25_30_groupi/n_69
*716 csa_tree_add_25_30_groupi/n_7
*717 csa_tree_add_25_30_groupi/n_70
*718 csa_tree_add_25_30_groupi/n_71
*719 csa_tree_add_25_30_groupi/n_72
*720 csa_tree_add_25_30_groupi/n_73
*721 csa_tree_add_25_30_groupi/n_74
*722 csa_tree_add_25_30_groupi/n_75
*723 csa_tree_add_25_30_groupi/n_76
*724 csa_tree_add_25_30_groupi/n_77
*725 csa_tree_add_25_30_groupi/n_78
*726 csa_tree_add_25_30_groupi/n_79
*727 csa_tree_add_25_30_groupi/n_8
*728 csa_tree_add_25_30_groupi/n_80
*729 csa_tree_add_25_30_groupi/n_81
*730 csa_tree_add_25_30_groupi/n_82
*731 csa_tree_add_25_30_groupi/n_83
*732 csa_tree_add_25_30_groupi/n_84
*733 csa_tree_add_25_30_groupi/n_85
*734 csa_tree_add_25_30_groupi/n_86
*735 csa_tree_add_25_30_groupi/n_87
*736 csa_tree_add_25_30_groupi/n_88
*737 csa_tree_add_25_30_groupi/n_89
*738 csa_tree_add_25_30_groupi/n_9
*739 csa_tree_add_25_30_groupi/n_90
*740 csa_tree_add_25_30_groupi/n_91
*741 csa_tree_add_25_30_groupi/n_92
*742 csa_tree_add_25_30_groupi/n_93
*743 csa_tree_add_25_30_groupi/n_94
*744 csa_tree_add_25_30_groupi/n_95
*745 csa_tree_add_25_30_groupi/n_96
*746 csa_tree_add_25_30_groupi/n_97
*747 csa_tree_add_25_30_groupi/n_98
*748 csa_tree_add_25_30_groupi/n_99
*749 csa_tree_add_22_19/n_0
*750 csa_tree_add_22_19/n_10
*751 csa_tree_add_22_19/n_100
*752 csa_tree_add_22_19/n_101
*753 csa_tree_add_22_19/n_102
*754 csa_tree_add_22_19/n_103
*755 csa_tree_add_22_19/n_104
*756 csa_tree_add_22_19/n_105
*757 csa_tree_add_22_19/n_106
*758 csa_tree_add_22_19/n_107
*759 csa_tree_add_22_19/n_108
*760 csa_tree_add_22_19/n_109
*761 csa_tree_add_22_19/n_11
*762 csa_tree_add_22_19/n_110
*763 csa_tree_add_22_19/n_111
*764 csa_tree_add_22_19/n_112
*765 csa_tree_add_22_19/n_113
*766 csa_tree_add_22_19/n_114
*767 csa_tree_add_22_19/n_115
*768 csa_tree_add_22_19/n_116
*769 csa_tree_add_22_19/n_117
*770 csa_tree_add_22_19/n_118
*771 csa_tree_add_22_19/n_119
*772 csa_tree_add_22_19/n_12
*773 csa_tree_add_22_19/n_120
*774 csa_tree_add_22_19/n_121
*775 csa_tree_add_22_19/n_122
*776 csa_tree_add_22_19/n_123
*777 csa_tree_add_22_19/n_124
*778 csa_tree_add_22_19/n_125
*779 csa_tree_add_22_19/n_126
*780 csa_tree_add_22_19/n_127
*781 csa_tree_add_22_19/n_128
*782 csa_tree_add_22_19/n_129
*783 csa_tree_add_22_19/n_13
*784 csa_tree_add_22_19/n_130
*785 csa_tree_add_22_19/n_131
*786 csa_tree_add_22_19/n_132
*787 csa_tree_add_22_19/n_133
*788 csa_tree_add_22_19/n_134
*789 csa_tree_add_22_19/n_135
*790 csa_tree_add_22_19/n_136
*791 csa_tree_add_22_19/n_137
*792 csa_tree_add_22_19/n_138
*793 csa_tree_add_22_19/n_139
*794 csa_tree_add_22_19/n_14
*795 csa_tree_add_22_19/n_140
*796 csa_tree_add_22_19/n_141
*797 csa_tree_add_22_19/n_142
*798 csa_tree_add_22_19/n_143
*799 csa_tree_add_22_19/n_144
*800 csa_tree_add_22_19/n_145
*801 csa_tree_add_22_19/n_146
*802 csa_tree_add_22_19/n_147
*803 csa_tree_add_22_19/n_148
*804 csa_tree_add_22_19/n_149
*805 csa_tree_add_22_19/n_15
*806 csa_tree_add_22_19/n_150
*807 csa_tree_add_22_19/n_151
*808 csa_tree_add_22_19/n_152
*809 csa_tree_add_22_19/n_154
*810 csa_tree_add_22_19/n_155
*811 csa_tree_add_22_19/n_156
*812 csa_tree_add_22_19/n_158
*813 csa_tree_add_22_19/n_16
*814 csa_tree_add_22_19/n_160
*815 csa_tree_add_22_19/n_161
*816 csa_tree_add_22_19/n_162
*817 csa_tree_add_22_19/n_163
*818 csa_tree_add_22_19/n_164
*819 csa_tree_add_22_19/n_165
*820 csa_tree_add_22_19/n_166
*821 csa_tree_add_22_19/n_167
*822 csa_tree_add_22_19/n_168
*823 csa_tree_add_22_19/n_169
*824 csa_tree_add_22_19/n_17
*825 csa_tree_add_22_19/n_170
*826 csa_tree_add_22_19/n_171
*827 csa_tree_add_22_19/n_172
*828 csa_tree_add_22_19/n_173
*829 csa_tree_add_22_19/n_174
*830 csa_tree_add_22_19/n_175
*831 csa_tree_add_22_19/n_176
*832 csa_tree_add_22_19/n_177
*833 csa_tree_add_22_19/n_178
*834 csa_tree_add_22_19/n_18
*835 csa_tree_add_22_19/n_180
*836 csa_tree_add_22_19/n_181
*837 csa_tree_add_22_19/n_186
*838 csa_tree_add_22_19/n_187
*839 csa_tree_add_22_19/n_188
*840 csa_tree_add_22_19/n_189
*841 csa_tree_add_22_19/n_19
*842 csa_tree_add_22_19/n_190
*843 csa_tree_add_22_19/n_191
*844 csa_tree_add_22_19/n_192
*845 csa_tree_add_22_19/n_193
*846 csa_tree_add_22_19/n_194
*847 csa_tree_add_22_19/n_195
*848 csa_tree_add_22_19/n_196
*849 csa_tree_add_22_19/n_197
*850 csa_tree_add_22_19/n_198
*851 csa_tree_add_22_19/n_199
*852 csa_tree_add_22_19/n_20
*853 csa_tree_add_22_19/n_200
*854 csa_tree_add_22_19/n_201
*855 csa_tree_add_22_19/n_204
*856 csa_tree_add_22_19/n_205
*857 csa_tree_add_22_19/n_208
*858 csa_tree_add_22_19/n_209
*859 csa_tree_add_22_19/n_21
*860 csa_tree_add_22_19/n_210
*861 csa_tree_add_22_19/n_211
*862 csa_tree_add_22_19/n_212
*863 csa_tree_add_22_19/n_213
*864 csa_tree_add_22_19/n_216
*865 csa_tree_add_22_19/n_217
*866 csa_tree_add_22_19/n_218
*867 csa_tree_add_22_19/n_219
*868 csa_tree_add_22_19/n_22
*869 csa_tree_add_22_19/n_222
*870 csa_tree_add_22_19/n_223
*871 csa_tree_add_22_19/n_224
*872 csa_tree_add_22_19/n_225
*873 csa_tree_add_22_19/n_226
*874 csa_tree_add_22_19/n_227
*875 csa_tree_add_22_19/n_228
*876 csa_tree_add_22_19/n_229
*877 csa_tree_add_22_19/n_23
*878 csa_tree_add_22_19/n_231
*879 csa_tree_add_22_19/n_232
*880 csa_tree_add_22_19/n_233
*881 csa_tree_add_22_19/n_234
*882 csa_tree_add_22_19/n_235
*883 csa_tree_add_22_19/n_236
*884 csa_tree_add_22_19/n_24
*885 csa_tree_add_22_19/n_243
*886 csa_tree_add_22_19/n_244
*887 csa_tree_add_22_19/n_25
*888 csa_tree_add_22_19/n_254
*889 csa_tree_add_22_19/n_255
*890 csa_tree_add_22_19/n_258
*891 csa_tree_add_22_19/n_259
*892 csa_tree_add_22_19/n_26
*893 csa_tree_add_22_19/n_260
*894 csa_tree_add_22_19/n_261
*895 csa_tree_add_22_19/n_262
*896 csa_tree_add_22_19/n_263
*897 csa_tree_add_22_19/n_264
*898 csa_tree_add_22_19/n_265
*899 csa_tree_add_22_19/n_27
*900 csa_tree_add_22_19/n_272
*901 csa_tree_add_22_19/n_273
*902 csa_tree_add_22_19/n_276
*903 csa_tree_add_22_19/n_277
*904 csa_tree_add_22_19/n_278
*905 csa_tree_add_22_19/n_279
*906 csa_tree_add_22_19/n_28
*907 csa_tree_add_22_19/n_280
*908 csa_tree_add_22_19/n_281
*909 csa_tree_add_22_19/n_29
*910 csa_tree_add_22_19/n_291
*911 csa_tree_add_22_19/n_292
*912 csa_tree_add_22_19/n_295
*913 csa_tree_add_22_19/n_30
*914 csa_tree_add_22_19/n_302
*915 csa_tree_add_22_19/n_303
*916 csa_tree_add_22_19/n_304
*917 csa_tree_add_22_19/n_305
*918 csa_tree_add_22_19/n_308
*919 csa_tree_add_22_19/n_309
*920 csa_tree_add_22_19/n_31