*SPEF "IEEE 1481-1998"
*DESIGN "triangle"
*DATE "Thu Dec 10 21:15:11 2015"
*VENDOR "Silicon Perspective, A Cadence Company"
*PROGRAM "Encounter"
*VERSION "10.12-s181_1"
*DESIGN_FLOW "COUPLING C" "PIN_CAP NONE" "NAME_SCOPE LOCAL"
*DIVIDER /
*DELIMITER :
*BUS_DELIMITER []
*T_UNIT 1 NS
*C_UNIT 1 PF
*R_UNIT 1 OHM
*L_UNIT 1 HENRY

*NAME_MAP

*1 mul_211_31/n_0
*2 mul_211_31/n_1
*3 mul_211_31/n_10
*4 mul_211_31/n_11
*5 mul_211_31/n_12
*6 mul_211_31/n_13
*7 mul_211_31/n_14
*8 mul_211_31/n_15
*9 mul_211_31/n_16
*10 mul_211_31/n_17
*11 mul_211_31/n_18
*12 mul_211_31/n_19
*13 mul_211_31/n_2
*14 mul_211_31/n_20
*15 mul_211_31/n_21
*16 mul_211_31/n_22
*17 mul_211_31/n_23
*18 mul_211_31/n_24
*19 mul_211_31/n_25
*20 mul_211_31/n_26
*21 mul_211_31/n_27
*22 mul_211_31/n_28
*23 mul_211_31/n_29
*24 mul_211_31/n_3
*25 mul_211_31/n_30
*26 mul_211_31/n_31
*27 mul_211_31/n_32
*28 mul_211_31/n_33
*29 mul_211_31/n_34
*30 mul_211_31/n_35
*31 mul_211_31/n_36
*32 mul_211_31/n_37
*33 mul_211_31/n_38
*34 mul_211_31/n_39
*35 mul_211_31/n_4
*36 mul_211_31/n_40
*37 mul_211_31/n_41
*38 mul_211_31/n_42
*39 mul_211_31/n_43
*40 mul_211_31/n_44
*41 mul_211_31/n_45
*42 mul_211_31/n_46
*43 mul_211_31/n_47
*44 mul_211_31/n_48
*45 mul_211_31/n_49
*46 mul_211_31/n_5
*47 mul_211_31/n_50
*48 mul_211_31/n_51
*49 mul_211_31/n_52
*50 mul_211_31/n_53
*51 mul_211_31/n_55
*52 mul_211_31/n_56
*53 mul_211_31/n_57
*54 mul_211_31/n_58
*55 mul_211_31/n_59
*56 mul_211_31/n_60
*57 mul_211_31/n_62
*58 mul_211_31/n_63
*59 mul_211_31/n_64
*60 mul_211_31/n_66
*61 mul_211_31/n_68
*62 mul_211_31/n_7
*63 mul_211_31/n_8
*64 mul_211_31/n_9
*65 AD[3]
*66 AD[4]
*67 AD[5]
*68 AD[6]
*69 BC[3]
*70 BC[4]
*71 BC[5]
*72 BC[6]
*73 FE_OCPN0_x_0_
*74 FE_OCPN1_n_418
*75 FE_OCPN2_n_169
*76 FE_OCP_RBN13_n_470
*77 FE_OCP_RBN22_control_3_
*78 FE_PSN23_n_527
*79 FE_PSN24_n_598
*80 FE_PSN25_FE_OCP_RBN13_n_470
*81 FE_PSN26_n_470
*82 FE_PSN27_n_457
*83 FE_PSN28_n_598
*84 FE_RN_14_0
*85 FE_RN_15_0
*86 FE_RN_16_0
*87 FE_RN_17_0
*88 FE_RN_18_0
*89 RLO[0]
*90 RLO[1]
*91 RLO[2]
*92 RLO[3]
*93 RLO[6]
*94 UNCONNECTED
*95 UNCONNECTED0
*96 UNCONNECTED1
*97 UNCONNECTED10
*98 UNCONNECTED11
*99 UNCONNECTED12
*100 UNCONNECTED13
*101 UNCONNECTED14
*102 UNCONNECTED15
*103 UNCONNECTED16
*104 UNCONNECTED17
*105 UNCONNECTED18
*106 UNCONNECTED19
*107 UNCONNECTED2
*108 UNCONNECTED3
*109 UNCONNECTED4
*110 UNCONNECTED5
*111 UNCONNECTED6
*112 UNCONNECTED7
*113 UNCONNECTED8
*114 UNCONNECTED9
*115 busy
*116 check
*117 clk
*118 clk__L1_N0
*119 clk__L2_N0
*120 clk__L2_N1
*121 clk__L2_N2
*122 clk__L2_N3
*123 clk__L2_N4
*124 clk__L2_N5
*125 clk__L2_N6
*126 clk__L3_N0
*127 clk__L3_N1
*128 clk__L3_N2
*129 clk__L3_N3
*130 clk__L3_N4
*131 clk__L3_N5
*132 clk__L3_N6
*133 clk__L3_N7
*134 clk__L3_N8
*135 clk__L3_N9
*136 clk__L4_N0
*137 clk__L4_N1
*138 clk__L4_N2
*139 clk__L4_N3
*140 clk__L4_N4
*141 clk__L4_N5
*142 clk__L5_N0
*143 clk__L5_N1
*144 clk__L5_N2
*145 clk__L5_N3
*146 clk__L6_N0
*147 clk__L6_N1
*148 control[0]
*149 control[1]
*150 control[2]
*151 control[3]
*152 good
*153 inc_x
*154 inc_y
*155 mul_en
*156 n_10
*157 n_100
*158 n_101
*159 n_102
*160 n_103
*161 n_108
*162 n_109
*163 n_11
*164 n_110
*165 n_112
*166 n_113
*167 n_117
*168 n_118
*169 n_119
*170 n_12
*171 n_120
*172 n_121
*173 n_122
*174 n_123
*175 n_124
*176 n_125
*177 n_127
*178 n_13
*179 n_130
*180 n_131
*181 n_132
*182 n_133
*183 n_134
*184 n_135
*185 n_136
*186 n_137
*187 n_138
*188 n_14
*189 n_143
*190 n_144
*191 n_146
*192 n_149
*193 n_15
*194 n_151
*195 n_152
*196 n_155
*197 n_157
*198 n_16
*199 n_160
*200 n_161
*201 n_162
*202 n_164
*203 n_165
*204 n_167
*205 n_168
*206 n_169
*207 n_170
*208 n_171
*209 n_172
*210 n_173
*211 n_174
*212 n_175
*213 n_177
*214 n_178
*215 n_179
*216 n_180
*217 n_181
*218 n_182
*219 n_183
*220 n_184
*221 n_185
*222 n_186
*223 n_187
*224 n_188
*225 n_189
*226 n_19
*227 n_190
*228 n_191
*229 n_192
*230 n_193
*231 n_194
*232 n_195
*233 n_196
*234 n_197
*235 n_20
*236 n_200
*237 n_201
*238 n_202
*239 n_205
*240 n_206
*241 n_207
*242 n_208
*243 n_209
*244 n_21
*245 n_210
*246 n_211
*247 n_212
*248 n_213
*249 n_214
*250 n_215
*251 n_218
*252 n_219
*253 n_22
*254 n_220
*255 n_221
*256 n_222
*257 n_223
*258 n_224
*259 n_225
*260 n_226
*261 n_227
*262 n_228
*263 n_229
*264 n_230
*265 n_231
*266 n_232
*267 n_233
*268 n_234
*269 n_235
*270 n_236
*271 n_237
*272 n_238
*273 n_239
*274 n_24
*275 n_240
*276 n_241
*277 n_242
*278 n_243
*279 n_244
*280 n_245
*281 n_246
*282 n_247
*283 n_248
*284 n_249
*285 n_25
*286 n_250
*287 n_251
*288 n_252
*289 n_253
*290 n_254
*291 n_255
*292 n_256
*293 n_257
*294 n_258
*295 n_259
*296 n_260
*297 n_261
*298 n_262
*299 n_263
*300 n_264
*301 n_265
*302 n_266
*303 n_267
*304 n_268
*305 n_269
*306 n_270
*307 n_271
*308 n_272
*309 n_273
*310 n_274
*311 n_275
*312 n_276
*313 n_277
*314 n_278
*315 n_279
*316 n_28
*317 n_280
*318 n_281
*319 n_282
*320 n_283
*321 n_284
*322 n_285
*323 n_286
*324 n_287
*325 n_288
*326 n_289
*327 n_29
*328 n_290
*329 n_291
*330 n_292
*331 n_293
*332 n_294
*333 n_295
*334 n_296
*335 n_297
*336 n_298
*337 n_299
*338 n_300
*339 n_301
*340 n_302
*341 n_303
*342 n_304
*343 n_305
*344 n_306
*345 n_307
*346 n_308
*347 n_309
*348 n_31
*349 n_310
*350 n_312
*351 n_313
*352 n_314
*353 n_316
*354 n_317
*355 n_318
*356 n_319
*357 n_32
*358 n_320
*359 n_321
*360 n_322
*361 n_323
*362 n_324
*363 n_325
*364 n_326
*365 n_327
*366 n_328
*367 n_329
*368 n_33
*369 n_330
*370 n_331
*371 n_332
*372 n_333
*373 n_335
*374 n_336
*375 n_339
*376 n_34
*377 n_340
*378 n_341
*379 n_342
*380 n_343
*381 n_344
*382 n_345
*383 n_347
*384 n_349
*385 n_351
*386 n_352
*387 n_353
*388 n_354
*389 n_355
*390 n_356
*391 n_358
*392 n_359
*393 n_36
*394 n_360
*395 n_361
*396 n_362
*397 n_363
*398 n_364
*399 n_365
*400 n_366
*401 n_367
*402 n_368
*403 n_369
*404 n_37
*405 n_370
*406 n_371
*407 n_372
*408 n_374
*409 n_375
*410 n_377
*411 n_378
*412 n_379
*413 n_38
*414 n_380
*415 n_381
*416 n_382
*417 n_384
*418 n_385
*419 n_386
*420 n_387
*421 n_388
*422 n_389
*423 n_39
*424 n_390
*425 n_392
*426 n_398
*427 n_4
*428 n_40
*429 n_400
*430 n_402
*431 n_404
*432 n_405
*433 n_406
*434 n_407
*435 n_408
*436 n_410
*437 n_411
*438 n_413
*439 n_414
*440 n_416
*441 n_417
*442 n_418
*443 n_422
*444 n_426
*445 n_43
*446 n_430
*447 n_432
*448 n_434
*449 n_439
*450 n_44
*451 n_440
*452 n_441
*453 n_442
*454 n_45
*455 n_455
*456 n_457
*457 n_458
*458 n_459
*459 n_46
*460 n_460
*461 n_461
*462 n_462
*463 n_463
*464 n_464
*465 n_465
*466 n_467
*467 n_468
*468 n_469
*469 n_47
*470 n_470
*471 n_471
*472 n_472
*473 n_48
*474 n_482
*475 n_483
*476 n_484
*477 n_485
*478 n_486
*479 n_49
*480 n_491
*481 n_492
*482 n_494
*483 n_496
*484 n_5
*485 n_50
*486 n_502
*487 n_508
*488 n_509
*489 n_51
*490 n_510
*491 n_512
*492 n_513
*493 n_515
*494 n_516
*495 n_517
*496 n_518
*497 n_519
*498 n_52
*499 n_520
*500 n_521
*501 n_522
*502 n_523
*503 n_524
*504 n_525
*505 n_527
*506 n_528
*507 n_529
*508 n_530
*509 n_531
*510 n_532
*511 n_533
*512 n_534
*513 n_535
*514 n_536
*515 n_537
*516 n_538
*517 n_539
*518 n_54
*519 n_540
*520 n_541
*521 n_542
*522 n_543
*523 n_544
*524 n_545
*525 n_55
*526 n_559
*527 n_56
*528 n_560
*529 n_57
*530 n_58
*531 n_597
*532 n_598
*533 n_599
*534 n_6
*535 n_600
*536 n_601
*537 n_602
*538 n_62
*539 n_63
*540 n_65
*541 n_66
*542 n_67
*543 n_68
*544 n_69
*545 n_7
*546 n_71
*547 n_72
*548 n_73
*549 n_74
*550 n_75
*551 n_76
*552 n_77
*553 n_78
*554 n_8
*555 n_80
*556 n_81
*557 n_82
*558 n_84
*559 n_85
*560 n_86
*561 n_88
*562 n_9
*563 n_90
*564 n_91
*565 n_92
*566 n_94
*567 n_97
*568 n_98
*569 n_99
*570 nt
*571 po
*572 rc_gclk
*573 rc_gclk_7484
*574 rc_gclk_7488
*575 rc_gclk_7492
*576 rc_gclk_7496
*577 rc_gclk_7500
*578 rc_gclk_7504
*579 rc_gclk_7508
*580 rc_gclk_7512
*581 rc_gclk_7516
*582 rc_gclk_7520
*583 rc_gclk_7524
*584 rc_gclk_7528
*585 rc_gclk_7532
*586 rc_gclk_7536
*587 rc_gclk_7540
*588 rc_gclk_7544
*589 rc_gclk_7548
*590 rc_gclk_7552
*591 rc_gclk_7558
*592 reset
*593 rst_int
*594 sub_en
*595 sub_op0[5]
*596 sub_op0[6]
*597 sub_op1[0]
*598 sub_op1[5]
*599 sub_op1[6]
*600 top_line
*601 x[0]
*602 x[1]
*603 x[2]
*604 x_max[0]
*605 x_max[1]
*606 x_max[2]
*607 x_min[0]
*608 x_min[1]
*609 x_min[2]
*610 xi[0]
*611 xi[1]
*612 xi[2]
*613 xo[0]
*614 xo[1]
*615 xo[2]
*616 y[0]
*617 y[1]
*618 y[2]
*619 y_max[1]
*620 y_max[2]
*621 y_min[0]
*622 y_min[1]
*623 y_min[2]
*624 yi[0]
*625 yi[1]
*626 yi[2]
*627 yo[0]
*628 yo[1]
*629 yo[2]
*630 xi_ff\[0\][0]
*631 xi_ff\[0\][1]
*632 xi_ff\[0\][2]
*633 xi_ff\[1\][0]
*634 xi_ff\[1\][1]
*635 xi_ff\[1\][2]
*636 xi_ff\[2\][0]
*637 xi_ff\[2\][1]
*638 xi_ff\[2\][2]
*639 yi_ff\[0\][2]
*640 yi_ff\[1\][2]
*641 yi_ff\[2\][0]
*642 yi_ff\[2\][1]
*643 yi_ff\[2\][2]
*644 FE_PSC28_n_598
*645 FE_PSC27_n_457
*646 FE_PSC26_n_470
*647 FE_PSC25_FE_OCP_RBN13_n_470
*648 FE_PSC24_n_598
*649 FE_PSC23_n_527
*650 FE_OCP_RBC22_control_3_
*651 FE_RC_46_0
*652 FE_RC_45_0
*653 FE_RC_44_0
*654 FE_RC_43_0
*655 FE_RC_42_0
*656 FE_RC_41_0
*657 FE_RC_40_0
*658 FE_RC_39_0
*659 FE_OCP_RBC13_n_470
*660 FE_RC_38_0
*661 FE_RC_37_0
*662 FE_RC_36_0
*663 FE_RC_35_0
*664 FE_RC_34_0
*665 FE_RC_33_0
*666 clk__L6_I1
*667 clk__L6_I0
*668 clk__L5_I3
*669 clk__L5_I2
*670 clk__L5_I1
*671 clk__L5_I0
*672 clk__L4_I5
*673 clk__L4_I4
*674 clk__L4_I3
*675 clk__L4_I2
*676 clk__L4_I1
*677 clk__L4_I0
*678 clk__L3_I9
*679 clk__L3_I8
*680 clk__L3_I7
*681 clk__L3_I6
*682 clk__L3_I5
*683 clk__L3_I4
*684 clk__L3_I3
*685 clk__L3_I2
*686 clk__L3_I1
*687 clk__L3_I0
*688 clk__L2_I6
*689 clk__L2_I5
*690 clk__L2_I4
*691 clk__L2_I3
*692 clk__L2_I2
*693 clk__L2_I1
*694 clk__L2_I0
*695 clk__L1_I0
*696 FE_OCPC2_n_169
*697 FE_OCPC1_n_418
*698 FE_OCPC0_x_0_
*699 RC_CG_HIER_INST0/RC_CGIC_INST
*700 RC_CG_HIER_INST1/RC_CGIC_INST
*701 RC_CG_HIER_INST10/RC_CGIC_INST
*702 RC_CG_HIER_INST11/RC_CGIC_INST
*703 RC_CG_HIER_INST12/RC_CGIC_INST
*704 RC_CG_HIER_INST13/RC_CGIC_INST
*705 RC_CG_HIER_INST14/RC_CGIC_INST
*706 RC_CG_HIER_INST15/RC_CGIC_INST
*707 RC_CG_HIER_INST16/RC_CGIC_INST
*708 RC_CG_HIER_INST17/RC_CGIC_INST
*709 RC_CG_HIER_INST18/RC_CGIC_INST
*710 RC_CG_HIER_INST19/RC_CGIC_INST
*711 RC_CG_HIER_INST2/RC_CGIC_INST
*712 RC_CG_HIER_INST3/RC_CGIC_INST
*713 RC_CG_HIER_INST4/RC_CGIC_INST
*714 RC_CG_HIER_INST5/RC_CGIC_INST
*715 RC_CG_HIER_INST6/RC_CGIC_INST
*716 RC_CG_HIER_INST7/RC_CGIC_INST
*717 RC_CG_HIER_INST8/RC_CGIC_INST
*718 RC_CG_HIER_INST9/RC_CGIC_INST
*719 mul_211_31/g1761
*720 mul_211_31/g1762
*721 mul_211_31/g1763
*722 mul_211_31/g1764
*723 mul_211_31/g1765
*724 mul_211_31/g1766
*725 mul_211_31/g1767
*726 mul_211_31/g1768
*727 mul_211_31/g1769
*728 mul_211_31/g1770
*729 mul_211_31/g1771
*730 mul_211_31/g1772
*731 mul_211_31/g1773
*732 mul_211_31/g1774
*733 mul_211_31/g1775
*734 mul_211_31/g1776
*735 mul_211_31/g1777
*736 mul_211_31/g1778
*737 mul_211_31/g1779
*738 mul_211_31/g1780
*739 mul_211_31/g1781
*740 mul_211_31/g1782
*741 mul_211_31/g1783
*742 mul_211_31/g1784
*743 mul_211_31/g1785
*744 mul_211_31/g1786
*745 mul_211_31/g1787
*746 mul_211_31/g1788
*747 mul_211_31/g1789
*748 mul_211_31/g1790
*749 mul_211_31/g1791
*750 mul_211_31/g1792
*751 mul_211_31/g1793
*752 mul_211_31/g1794
*753 mul_211_31/g1795
*754 mul_211_31/g1796
*755 mul_211_31/g1797
*756 mul_211_31/g1798
*757 mul_211_31/g1799
*758 mul_211_31/g1800
*759 mul_211_31/g1801
*760 mul_211_31/g1802
*761 mul_211_31/g1803
*762 mul_211_31/g1804
*763 mul_211_31/g1805
*764 mul_211_31/g1806
*765 mul_211_31/g1807
*766 mul_211_31/g1808
*767 mul_211_31/g1809
*768 mul_211_31/g1810
*769 mul_211_31/g1811
*770 mul_211_31/g1812
*771 mul_211_31/g1813
*772 mul_211_31/g1814
*773 mul_211_31/g1815
*774 mul_211_31/g1816
*775 mul_211_31/g1817
*776 mul_211_31/g1818
*777 mul_211_31/g1819
*778 mul_211_31/g1820
*779 mul_211_31/g1821
*780 mul_211_31/g1822
*781 AD_reg\[2\]
*782 AD_reg\[3\]
*783 AD_reg\[4\]
*784 AD_reg\[5\]
*785 AD_reg\[6\]
*786 BC_reg\[3\]
*787 BC_reg\[4\]
*788 BC_reg\[5\]
*789 BC_reg\[6\]
*790 D0_reg\[0\]
*791 D0_reg\[1\]
*792 D0_reg\[4\]
*793 D0_reg\[6\]
*794 D1_reg\[0\]
*795 D1_reg\[1\]
*796 D1_reg\[4\]
*797 D1_reg\[6\]
*798 RLO_reg\[0\]
*799 RLO_reg\[1\]
*800 RLO_reg\[2\]
*801 RLO_reg\[3\]
*802 x_reg\[0\]
*803 xi_ff_reg\[2\]\[0\]
*804 y_max_reg\[0\]
*805 yi_ff_reg\[0\]\[0\]
*806 yi_ff_reg\[0\]\[1\]
*807 yi_ff_reg\[0\]\[2\]
*808 yi_ff_reg\[1\]\[2\]
*809 yi_ff_reg\[2\]\[0\]
*810 yi_ff_reg\[2\]\[1\]
*811 yi_ff_reg\[2\]\[2\]
*812 g3688
*813 A_reg\[0\]
*814 A_reg\[1\]
*815 A_reg\[2\]
*816 A_reg\[3\]
*817 A_reg\[4\]
*818 A_reg\[5\]
*819 A_reg\[6\]
*820 BC_reg\[0\]
*821 BC_reg\[1\]
*822 B_reg\[0\]
*823 B_reg\[1\]
*824 B_reg\[2\]
*825 B_reg\[3\]
*826 B_reg\[4\]
*827 B_reg\[5\]
*828 B_reg\[6\]
*829 C0_reg\[0\]
*830 C0_reg\[1\]
*831 C0_reg\[2\]
*832 C0_reg\[3\]
*833 C0_reg\[4\]
*834 C0_reg\[5\]
*835 C0_reg\[6\]
*836 C1_reg\[0\]
*837 C1_reg\[1\]
*838 C1_reg\[2\]
*839 C1_reg\[3\]
*840 C1_reg\[4\]
*841 C1_reg\[5\]
*842 C1_reg\[6\]
*843 D0_reg\[2\]
*844 D0_reg\[3\]
*845 D0_reg\[5\]
*846 D1_reg\[2\]
*847 D1_reg\[3\]
*848 D1_reg\[5\]
*849 busy_reg
*850 mul_op0_reg\[0\]
*851 mul_op0_reg\[1\]
*852 mul_op0_reg\[2\]
*853 mul_op0_reg\[3\]
*854 mul_op0_reg\[4\]
*855 mul_op0_reg\[5\]
*856 mul_op0_reg\[6\]
*857 mul_op1_reg\[0\]
*858 mul_op1_reg\[1\]
*859 mul_op1_reg\[2\]
*860 mul_op1_reg\[3\]
*861 mul_op1_reg\[4\]
*862 mul_op1_reg\[5\]
*863 mul_op1_reg\[6\]
*864 sub_ans_reg\[0\]
*865 sub_ans_reg\[1\]
*866 sub_ans_reg\[2\]
*867 sub_ans_reg\[3\]
*868 sub_ans_reg\[4\]
*869 sub_ans_reg\[5\]
*870 sub_ans_reg\[6\]
*871 sub_en_reg
*872 sub_op0_reg\[0\]
*873 sub_op0_reg\[2\]
*874 sub_op0_reg\[3\]
*875 sub_op0_reg\[4\]
*876 sub_op0_reg\[5\]
*877 sub_op0_reg\[6\]
*878 sub_op1_reg\[0\]
*879 sub_op1_reg\[1\]
*880 sub_op1_reg\[3\]
*881 sub_op1_reg\[4\]
*882 sub_op1_reg\[5\]
*883 sub_op1_reg\[6\]
*884 x_max_reg\[1\]
*885 x_max_reg\[2\]
*886 x_min_reg\[0\]
*887 x_min_reg\[1\]
*888 x_min_reg\[2\]
*889 xi_ff_reg\[0\]\[0\]
*890 xi_ff_reg\[0\]\[1\]
*891 xi_ff_reg\[1\]\[0\]
*892 xi_ff_reg\[1\]\[2\]
*893 xi_ff_reg\[2\]\[1\]
*894 xo_reg\[0\]
*895 xo_reg\[1\]
*896 xo_reg\[2\]
*897 y_max_reg\[1\]
*898 y_max_reg\[2\]
*899 y_min_reg\[0\]
*900 y_min_reg\[1\]
*901 y_min_reg\[2\]
*902 yi_ff_reg\[1\]\[0\]
*903 yo_reg\[0\]
*904 yo_reg\[1\]
*905 yo_reg\[2\]
*906 g5879
*907 g5881
*908 g5882
*909 g5884
*910 g5886
*911 g5887
*912 g5892
*913 g5894
*914 g5903
*915 g5904
*916 g5905
*917 g5906
*918 g5909
*919 g5915
*920 g5916
*921 g5917
*922 g5918
*923 g5926
*924 g5927
*925 g5928
*926 g5929
*927 g5931
*928 g5934
*929 g5935
*930 g5936
*931 g5937
*932 g5944
*933 g5946
*934 g5949
*935 g5950
*936 g5951
*937 g5952
*938 g5954
*939 g5960
*940 g5961
*941 g5962
*942 g5968
*943 g5969
*944 g5970
*945 g5972
*946 g5973
*947 g5974
*948 g5975
*949 g5977
*950 g5978
*951 g5981
*952 g5982
*953 g5983
*954 g5984
*955 g5988
*956 g5989
*957 g5990
*958 g5996
*959 g6002
*960 g6003
*961 g6004
*962 g6005
*963 g6006
*964 g6007
*965 g6009
*966 g6012
*967 g6013
*968 g6014
*969 g6017
*970 g6018
*971 g6019
*972 g6020
*973 g6021
*974 g6023
*975 g6026
*976 g6027
*977 g6028
*978 g6031
*979 g6032
*980 g6033
*981 g6034
*982 g6035
*983 g6036
*984 g6037
*985 g6038
*986 g6039
*987 g6040
*988 g6041
*989 g6042
*990 g6043
*991 g6044
*992 g6045
*993 g6046
*994 g6047
*995 g6048
*996 g6049
*997 g6050
*998 g6051
*999 g6052
*1000 g6053
*1001 g6054
*1002 g6055
*1003 g6057
*1004 g6058
*1005 g6060
*1006 g6092
*1007 g6093
*1008 g6094
*1009 g6095
*1010 g6096
*1011 g6097
*1012 g6098
*1013 g6099
*1014 g6100
*1015 g6101
*1016 g6102
*1017 g6103
*1018 g6105
*1019 g6108
*1020 g6110
*1021 g6111
*1022 g6113
*1023 g6114
*1024 g6115
*1025 g6116
*1026 g6117
*1027 g6119
*1028 g6120
*1029 g6121
*1030 g6122
*1031 g6123
*1032 g6125
*1033 g6128
*1034 g6130
*1035 g6133
*1036 g6137
*1037 g6159
*1038 g6160
*1039 g6162
*1040 g6166
*1041 g6168
*1042 g6169
*1043 x_max_reg\[0\]
*1044 g6185
*1045 AD_reg\[0\]
*1046 AD_reg\[1\]
*1047 BC_reg\[2\]
*1048 RLO_reg\[4\]
*1049 RLO_reg\[5\]
*1050 RLO_reg\[6\]
*1051 check_reg
*1052 control_reg\[1\]
*1053 control_reg\[2\]
*1054 control_reg\[3\]
*1055 good_reg
*1056 inc_x_reg
*1057 mul_ans_reg\[0\]
*1058 mul_ans_reg\[1\]
*1059 mul_ans_reg\[2\]
*1060 mul_ans_reg\[3\]
*1061 mul_ans_reg\[4\]
*1062 mul_ans_reg\[5\]
*1063 mul_ans_reg\[6\]
*1064 mul_en_reg
*1065 po__reg
*1066 po_reg
*1067 sub_op0_reg\[1\]
*1068 sub_op1_reg\[2\]
*1069 top_line_reg
*1070 x_reg\[1\]
*1071 x_reg\[2\]
*1072 xi_ff_reg\[1\]\[1\]
*1073 xi_ff_reg\[2\]\[2\]
*1074 y_reg\[0\]
*1075 y_reg\[1\]
*1076 y_reg\[2\]
*1077 yi_ff_reg\[1\]\[1\]
*1078 g7156
*1079 g7161
*1080 g7163
*1081 g7164
*1082 g7165
*1083 g7166
*1084 g7168
*1085 g7169
*1086 g7170
*1087 g7171
*1088 g7173
*1089 g7179
*1090 g7180
*1091 g7184
*1092 g7185
*1093 g7186
*1094 g7194
*1095 g7195
*1096 g7196
*1097 g7197
*1098 g7202
*1099 g7203
*1100 g7204
*1101 g7207
*1102 g7209
*1103 g7211
*1104 g7212
*1105 g7215
*1106 g7217
*1107 g7218
*1108 g7219
*1109 g7223
*1110 g7224
*1111 g7225
*1112 g7227
*1113 g7228
*1114 g7229
*1115 g7230
*1116 g7231
*1117 g7232
*1118 g7233
*1119 g7234
*1120 g7236
*1121 g7237
*1122 g7238
*1123 g7239
*1124 g7240
*1125 g7243
*1126 g7244
*1127 g7249
*1128 g7250
*1129 g7251
*1130 g7252
*1131 g7253
*1132 g7255
*1133 g7256
*1134 g7257
*1135 g7258
*1136 g7259
*1137 g7260
*1138 g7261
*1139 g7262
*1140 g7263
*1141 g7265
*1142 g7268
*1143 g7269
*1144 g7270
*1145 g7271
*1146 g7272
*1147 g7274
*1148 g7275
*1149 g7276
*1150 g7277
*1151 g7279
*1152 g7280
*1153 g7283
*1154 g7284
*1155 g7287
*1156 g7288
*1157 g7297
*1158 g7301
*1159 g7313
*1160 g7316
*1161 g7317
*1162 g7319
*1163 g7320
*1164 g7322
*1165 g7323
*1166 g7324
*1167 g7325
*1168 g7326
*1169 g7327
*1170 g7331
*1171 rst_int_reg
*1172 g7337
*1173 g7338
*1174 g7340
*1175 g7341
*1176 g620
*1177 g621
*1178 g625
*1179 g627
*1180 g616
*1181 g626
*1182 g618
*1183 g623
*1184 g624
*1185 g629
*1186 g16
*1187 g17
*1188 g18
*1189 g19
*1190 g21
*1191 g23
*1192 g24
*1193 g35
*1194 g36
*1195 g15
*1196 g14
*1197 g7354
*1198 g7358
*1199 g50
*1200 g51
*1201 g52
*1202 g13
*1203 g38
*1204 g39
*1205 g40
*1206 g95
*1207 g96
*1208 g126
*1209 g127
*1210 g128
*1211 g129
*1212 g130
*1213 g104
*1214 g106
*1215 g109
*1216 g100
*1217 g99
*1218 g105
*1219 g108
*1220 g102
*1221 g103
*1222 g107
*1223 g58
*1224 g55
*1225 g56
*1226 g57
*1227 g7360
*1228 g7361
*1229 g7362
*1230 g7363
*1231 g7364
*1232 inc_y_reg
*1233 g7408
*1234 g7409
*1235 g22
*1236 g7410
*1237 g7411
*1238 g2
*1239 control_reg\[0\]
*1240 xi_ff_reg\[0\]\[2\]


*PORTS

*117 I *C 60.5 0
*592 I *C 75.7 0
*570 I *C 115.11 50.8
*612 I *C 44.7 0
*611 I *C 58.9 0
*610 I *C 55.1 0
*626 I *C 0 31.2
*625 I *C 0 31.2
*624 I *C 0 38.2
*115 O *C 0 74
*571 O *C 115.11 36
*615 O *C 69.9 0
*614 O *C 65.9 0
*613 O *C 73.3 0
*629 O *C 0 32.4
*628 O *C 0 43.8
*627 O *C 0 46.8


*D_NET *174 1.536e-05

*CONN
*I *1082:ZN O *C 79 39 *L 0 *D IND2D0
*I *1081:A2 I *C 79 40 *L 0.0007 *D CKND2D0

*CAP
1 *1081:A2 7.68e-06
2 *1082:ZN 7.68e-06

*RES
1 *1082:ZN *1081:A2 0.355556
*END

*D_NET *554 4.604e-05

*CONN
*I *1164:ZN O *C 43 42 *L 0 *D CKND2
*I *1123:B I *C 44 42 *L 0.0021 *D OAI21D2

*CAP
1 *1123:B 2.302e-05
2 *1164:ZN 2.302e-05

*RES
1 *1164:ZN *1123:B 1.06667
*END

*D_NET *599 6.136e-05

*CONN
*I *914:A2 I *C 33 61 *L 0.0017 *D XNR3D0
*I *883:Q O *C 33 61 *L 0 *D LNQD1

*CAP
1 *914:A2 3.068e-05
2 *883:Q 3.068e-05

*RES
1 *883:Q *914:A2 1.42222
*END

*D_NET *303 3.068e-05

*CONN
*I *917:A1 I *C 50 63 *L 0.0012 *D AN2D2
*I *869:Q O *C 50 63 *L 0 *D LHQD1

*CAP
1 *917:A1 1.534e-05
2 *869:Q 1.534e-05

*RES
1 *869:Q *917:A1 0.711111
*END

*D_NET *248 4.23e-05

*CONN
*I *957:Z O *C 36 53 *L 0 *D OA21D0
*I *951:C I *C 37 53 *L 0.0009 *D OAI221D0

*CAP
1 *248:3 2.115e-05
2 *248:2 2.115e-05

*RES
1 *957:Z *248:2 1.5
2 *248:2 *248:3 0.56
3 *248:3 *951:C 1.5
*END

*D_NET *274 0.00029298

*CONN
*I *1154:Z O *C 31 35 *L 0 *D AN2XD1
*I *1097:A2 I *C 31 36 *L 0.0024 *D OAI22D2

*CAP
1 *1097:A2 2.595e-05
2 *274:5 8.284e-05
3 *274:4 7.921e-05
4 *274:3 3.77e-05
5 *274:2 4.133e-05
6 *1154:Z 2.595e-05

*RES
1 *1154:Z *274:2 1.5
2 *274:2 *274:3 0.56
3 *274:3 *274:4 0.28
4 *274:4 *274:5 1.12
5 *274:5 *1097:A2 1.5
*END

*D_NET *477 0.00081208

*CONN
*I *1193:ZN O *C 31 42 *L 0 *D MAOI22D1
*I *1097:A1 I *C 31 36 *L 0.0022 *D OAI22D2

*CAP
1 *1097:A1 2.595e-05
2 *477:3 0.00038009
3 *477:2 0.00038009
4 *1193:ZN 2.595e-05

*RES
1 *1193:ZN *477:2 1.5
2 *477:3 *477:2 8.96
3 *477:3 *1097:A1 1.5
*END

*D_NET *224 0.0002601

*CONN
*I *983:ZN O *C 37 65 *L 0 *D NR2D0
*I *881:D I *C 37 66 *L 0.0008 *D LNQD1

*CAP
1 *881:D 2.595e-05
2 *224:5 7.49e-05
3 *224:4 7.133e-05
4 *224:3 2.92e-05
5 *224:2 3.277e-05
6 *983:ZN 2.595e-05

*RES
1 *983:ZN *224:2 1.5
2 *224:2 *224:3 0.56
3 *224:4 *224:3 0.28
4 *224:4 *224:5 1.4
5 *224:5 *881:D 1.5
*END

*D_NET *277 0.00035722

*CONN
*I *925:ZN O *C 37 64 *L 0 *D MAOI222D0
*I *919:CI I *C 37 63 *L 0.0012 *D FA1D0

*CAP
1 *919:CI 2.595e-05
2 *277:5 0.00011974
3 *277:4 0.00011617
4 *277:3 3.292e-05
5 *277:2 3.649e-05
6 *925:ZN 2.595e-05

*RES
1 *925:ZN *277:2 1.5
2 *277:3 *277:2 0.56
3 *277:3 *277:4 0.28
4 *277:5 *277:4 1.68
5 *277:5 *919:CI 1.5
*END

*D_NET *249 0.0002129

*CONN
*I *956:ZN O *C 40 54 *L 0 *D AOI21D0
*I *952:C I *C 40 55 *L 0.0009 *D OAI221D0

*CAP
1 *952:C 2.595e-05
2 *249:5 5.374e-05
3 *249:4 5.017e-05
4 *249:3 2.676e-05
5 *249:2 3.033e-05
6 *956:ZN 2.595e-05

*RES
1 *956:ZN *249:2 1.5
2 *249:2 *249:3 0.28
3 *249:4 *249:3 0.28
4 *249:4 *249:5 1.68
5 *249:5 *952:C 1.5
*END

*D_NET *66 0.00022326

*CONN
*I *987:A2 I *C 40 69 *L 0.0007 *D NR2D0
*I *783:QN O *C 40 70 *L 0 *D SDFQND1

*CAP
1 *987:A2 2.595e-05
2 *66:5 4.963e-05
3 *66:4 5.532e-05
4 *66:3 3.605e-05
5 *66:2 3.036e-05
6 *783:QN 2.595e-05

*RES
1 *783:QN *66:2 1.5
2 *66:3 *66:2 0.56
3 *66:4 *66:3 0.56
4 *66:5 *66:4 1.12
5 *66:5 *987:A2 1.5
*END

*D_NET *220 0.00037824

*CONN
*I *987:ZN O *C 40 68 *L 0 *D NR2D0
*I *875:D I *C 40 65 *L 0.0008 *D LNQD1

*CAP
1 *875:D 2.595e-05
2 *220:5 6.664e-05
3 *220:4 6.307e-05
4 *220:3 9.653e-05
5 *220:2 0.0001001
6 *987:ZN 2.595e-05

*RES
1 *987:ZN *220:2 1.5
2 *220:3 *220:2 1.96
3 *220:4 *220:3 0.28
4 *220:5 *220:4 2.8
5 *220:5 *875:D 1.5
*END

*D_NET *428 0.00028242

*CONN
*I *1142:ZN O *C 41 44 *L 0 *D CKND0
*I *1086:A1 I *C 41 46 *L 0.0008 *D OAI32D0

*CAP
1 *1086:A1 2.595e-05
2 *428:5 5.116e-05
3 *428:4 5.948e-05
4 *428:3 6.41e-05
5 *428:2 5.578e-05
6 *1142:ZN 2.595e-05

*RES
1 *1142:ZN *428:2 1.5
2 *428:2 *428:3 1.4
3 *428:3 *428:4 0.56
4 *428:4 *428:5 1.4
5 *428:5 *1086:A1 1.5
*END

*D_NET *61 0.00022076

*CONN
*I *720:CO O *C 43 80 *L 0 *D FA1D0
*I *719:A3 I *C 43 82 *L 0.0009 *D XOR3D0

*CAP
1 *719:A3 2.595e-05
2 *61:5 5.773e-05
3 *61:4 5.41e-05
4 *61:3 2.67e-05
5 *61:2 3.033e-05
6 *720:CO 2.595e-05

*RES
1 *720:CO *61:2 1.5
2 *61:2 *61:3 0.28
3 *61:4 *61:3 0.28
4 *61:4 *61:5 1.4
5 *61:5 *719:A3 1.5
*END

*D_NET *246 0.00112508

*CONN
*I *959:ZN O *C 43 49 *L 0 *D OAI211D0
*I *873:D I *C 43 57 *L 0.0008 *D LND1

*CAP
1 *873:D 2.595e-05
2 *246:5 0.00018815
3 *246:4 0.00019384
4 *246:3 0.00034844
5 *246:2 0.00034275
6 *959:ZN 2.595e-05

*RES
1 *959:ZN *246:2 1.5
2 *246:2 *246:3 6.16
3 *246:4 *246:3 0.56
4 *246:4 *246:5 3.92
5 *246:5 *873:D 1.5
*END

*D_NET *612 0.00279477

*CONN
*P *612 I *C 44 0 *L 0
*I *1223:I I *C 44 31 *L 0.0011 *D CKND1

*CAP
1 *1223:I 2.595e-05
2 *612:9 0.00029391
3 *612:8 0.00029391
4 *612:7 5.202e-05
5 *612:6 5.202e-05
6 *612:5 0.00099665
7 *612:4 0.00099665
8 *612:3 2.9e-05
9 *612:2 2.9e-05
10 *612 2.566e-05

*RES
1 *612 *612:2 1.5
2 *612:2 *612:3 0.711111
3 *612:3 *612:4 1.5
4 *612:4 *612:5 33.32
5 *612:5 *612:6 1.5
6 *612:7 *612:6 1.77778
7 *612:7 *612:8 1.5
8 *612:8 *612:9 9.52
9 *612:9 *1223:I 1.5
*END

*D_NET *347 0.00018116

*CONN
*I *937:B I *C 45 59 *L 0.0023 *D FA1D0
*I *873:QN O *C 45 58 *L 0 *D LND1

*CAP
1 *937:B 2.595e-05
2 *347:5 4.596e-05
3 *347:4 4.239e-05
4 *347:3 1.867e-05
5 *347:2 2.224e-05
6 *873:QN 2.595e-05

*RES
1 *873:QN *347:2 1.5
2 *347:2 *347:3 0.28
3 *347:4 *347:3 0.28
4 *347:4 *347:5 1.4
5 *347:5 *937:B 1.5
*END

*D_NET *327 0.0002915

*CONN
*I *1207:B I *C 46 44 *L 0.0021 *D AOI21D2
*I *1151:ZN O *C 46 45 *L 0 *D CKND2

*CAP
1 *1207:B 2.595e-05
2 *327:5 5.499e-05
3 *327:4 6.331e-05
4 *327:3 6.481e-05
5 *327:2 5.649e-05
6 *1151:ZN 2.595e-05

*RES
1 *1151:ZN *327:2 1.5
2 *327:3 *327:2 1.12
3 *327:4 *327:3 0.56
4 *327:5 *327:4 1.4
5 *327:5 *1207:B 1.5
*END

*D_NET *259 0.00022694

*CONN
*I *943:ZN O *C 46 57 *L 0 *D MAOI222D0
*I *937:CI I *C 47 59 *L 0.0012 *D FA1D0

*CAP
1 *937:CI 2.595e-05
2 *259:5 6.027e-05
3 *259:4 6.596e-05
4 *259:3 2.725e-05
5 *259:2 2.156e-05
6 *943:ZN 2.595e-05

*RES
1 *943:ZN *259:2 1.5
2 *259:2 *259:3 0.28
3 *259:4 *259:3 0.56
4 *259:4 *259:5 1.4
5 *259:5 *937:CI 1.5
*END

*D_NET *167 0.00029066

*CONN
*I *1088:ZN O *C 48 42 *L 0 *D AOI211D0
*I *1087:B I *C 48 44 *L 0.0008 *D OAI211D0

*CAP
1 *1087:B 2.595e-05
2 *167:5 8.628e-05
3 *167:4 8.403e-05
4 *167:3 3.31e-05
5 *167:2 3.535e-05
6 *1088:ZN 2.595e-05

*RES
1 *1088:ZN *167:2 1.5
2 *167:2 *167:3 0.56
3 *167:4 *167:3 0.28
4 *167:4 *167:5 1.12
5 *167:5 *1087:B 1.5
*END

*D_NET *569 0.0009008

*CONN
*I *1098:Z O *C 49 50 *L 0 *D AO221D0
*I *1067:D I *C 49 55 *L 0.0008 *D LHQD1

*CAP
1 *1067:D 2.595e-05
2 *569:5 8.383e-05
3 *569:4 8.026e-05
4 *569:3 0.00034062
5 *569:2 0.00034419
6 *1098:Z 2.595e-05

*RES
1 *1098:Z *569:2 1.5
2 *569:2 *569:3 5.32
3 *569:3 *569:4 0.28
4 *569:4 *569:5 1.68
5 *569:5 *1067:D 1.5
*END

*D_NET *45 0.00022066

*CONN
*I *731:CO O *C 53 80 *L 0 *D HA1D0
*I *724:A3 I *C 53 82 *L 0.0008 *D XNR4D0

*CAP
1 *724:A3 2.595e-05
2 *45:5 4.845e-05
3 *45:4 5.402e-05
4 *45:3 3.593e-05
5 *45:2 3.036e-05
6 *731:CO 2.595e-05

*RES
1 *731:CO *45:2 1.5
2 *45:2 *45:3 0.56
3 *45:4 *45:3 0.56
4 *45:4 *45:5 1.12
5 *45:5 *724:A3 1.5
*END

*D_NET *487 0.0002915

*CONN
*I *1201:ZN O *C 53 49 *L 0 *D CKND2
*I *1200:A1 I *C 54 51 *L 0.0019 *D CKND2D2

*CAP
1 *1200:A1 2.595e-05
2 *487:3 0.0001198
3 *487:2 0.0001198
4 *1201:ZN 2.595e-05

*RES
1 *1201:ZN *487:2 1.5
2 *487:2 *487:3 1.96
3 *487:3 *1200:A1 1.5
*END

*D_NET *530 0.0003157

*CONN
*I *1127:ZN O *C 54 40 *L 0 *D OAI22D0
*I *1070:D I *C 54 38 *L 0.0012 *D SDFNSND4

*CAP
1 *1070:D 2.595e-05
2 *530:5 9.306e-05
3 *530:4 9.081e-05
4 *530:3 3.884e-05
5 *530:2 4.109e-05
6 *1127:ZN 2.595e-05

*RES
1 *1127:ZN *530:2 1.5
2 *530:3 *530:2 0.84
3 *530:4 *530:3 0.28
4 *530:5 *530:4 1.4
5 *530:5 *1070:D 1.5
*END

*D_NET *38 0.00035698

*CONN
*I *738:Z O *C 54 76 *L 0 *D AO22D0
*I *731:B I *C 54 80 *L 0.0031 *D HA1D0

*CAP
1 *731:B 2.595e-05
2 *38:5 8.704e-05
3 *38:4 8.341e-05
4 *38:3 6.55e-05
5 *38:2 6.913e-05
6 *738:Z 2.595e-05

*RES
1 *738:Z *38:2 1.5
2 *38:2 *38:3 1.4
3 *38:4 *38:3 0.28
4 *38:4 *38:5 3.08
5 *38:5 *731:B 1.5
*END

*D_NET *32 0.0006814

*CONN
*I *743:ZN O *C 55 77 *L 0 *D AOI22D0
*I *724:A2 I *C 55 82 *L 0.0008 *D XNR4D0

*CAP
1 *724:A2 2.595e-05
2 *32:5 0.00020605
3 *32:4 0.00020242
4 *32:3 0.0001087
5 *32:2 0.00011233
6 *743:ZN 2.595e-05

*RES
1 *743:ZN *32:2 1.5
2 *32:2 *32:3 1.68
3 *32:3 *32:4 0.28
4 *32:4 *32:5 5.32
5 *32:5 *724:A2 1.5
*END

*D_NET *537 0.00024532

*CONN
*I *1238:ZN O *C 55 33 *L 0 *D IND3D2
*I *1225:B1 I *C 55 34 *L 0.0012 *D MOAI22D2

*CAP
1 *1225:B1 2.595e-05
2 *537:5 5.027e-05
3 *537:4 4.664e-05
4 *537:3 4.644e-05
5 *537:2 5.007e-05
6 *1238:ZN 2.595e-05

*RES
1 *1238:ZN *537:2 1.5
2 *537:2 *537:3 0.84
3 *537:3 *537:4 0.28
4 *537:4 *537:5 1.4
5 *537:5 *1225:B1 1.5
*END

*D_NET *517 0.00020172

*CONN
*I *1225:ZN O *C 56 35 *L 0 *D MOAI22D2
*I *1224:A2 I *C 56 36 *L 0.0011 *D OAI21D1

*CAP
1 *1224:A2 2.595e-05
2 *517:5 4.745e-05
3 *517:4 4.382e-05
4 *517:3 2.746e-05
5 *517:2 3.109e-05
6 *1225:ZN 2.595e-05

*RES
1 *1225:ZN *517:2 1.5
2 *517:2 *517:3 0.56
3 *517:4 *517:3 0.28
4 *517:4 *517:5 1.4
5 *517:5 *1224:A2 1.5
*END

*D_NET *547 0.0004335

*CONN
*I *1118:ZN O *C 60 46 *L 0 *D MUX2ND0
*I *1091:A1 I *C 60 47 *L 0.0008 *D OAI32D0

*CAP
1 *1091:A1 2.595e-05
2 *547:3 0.0001908
3 *547:2 0.0001908
4 *1118:ZN 2.595e-05

*RES
1 *1118:ZN *547:2 1.5
2 *547:2 *547:3 1.96
3 *547:3 *1091:A1 1.5
*END

*D_NET *339 0.00043434

*CONN
*I *911:B1 I *C 61 70 *L 0.001 *D AO22D0
*I *818:Q O *C 61 65 *L 0 *D DFQD1

*CAP
1 *911:B1 2.595e-05
2 *339:5 0.00012274
3 *339:4 0.00012015
4 *339:3 6.848e-05
5 *339:2 7.107e-05
6 *818:Q 2.595e-05

*RES
1 *818:Q *339:2 1.5
2 *339:2 *339:3 3.08
3 *339:4 *339:3 0.28
4 *339:4 *339:5 3.92
5 *339:5 *911:B1 1.5
*END

*D_NET *290 0.00037552

*CONN
*I *911:Z O *C 61 71 *L 0 *D AO22D0
*I *855:D I *C 61 74 *L 0.0008 *D LHQD1

*CAP
1 *855:D 2.595e-05
2 *290:5 8.226e-05
3 *290:4 8.783e-05
4 *290:3 7.955e-05
5 *290:2 7.398e-05
6 *911:Z 2.595e-05

*RES
1 *911:Z *290:2 1.5
2 *290:2 *290:3 1.96
3 *290:4 *290:3 0.56
4 *290:4 *290:5 2.52
5 *290:5 *855:D 1.5
*END

*D_NET *469 0.00038186

*CONN
*I *1137:ZN O *C 63 38 *L 0 *D MOAI22D1
*I *1105:A3 I *C 63 42 *L 0.0066 *D NR3D4

*CAP
1 *1105:A3 2.595e-05
2 *469:5 0.00010856
3 *469:4 0.00011688
4 *469:3 5.642e-05
5 *469:2 4.81e-05
6 *1137:ZN 2.595e-05

*RES
1 *1137:ZN *469:2 1.5
2 *469:2 *469:3 0.84
3 *469:3 *469:4 0.56
4 *469:4 *469:5 4.2
5 *469:5 *1105:A3 1.5
*END

*D_NET *240 0.00032978

*CONN
*I *953:A1 I *C 64 38 *L 0.0012 *D OAI22D1
*I *658:ZN O *C 64 35 *L 0 *D AOI32D2

*CAP
1 *953:A1 2.595e-05
2 *240:5 5.885e-05
3 *240:4 5.66e-05
4 *240:3 8.009e-05
5 *240:2 8.234e-05
6 *658:ZN 2.595e-05

*RES
1 *658:ZN *240:2 1.5
2 *240:2 *240:3 3.08
3 *240:4 *240:3 0.28
4 *240:4 *240:5 1.4
5 *240:5 *953:A1 1.5
*END

*D_NET *378 0.00084882

*CONN
*I *996:ZN O *C 66 55 *L 0 *D CKND2D0
*I *700:E I *C 66 63 *L 0.0011 *D CKLNQD1

*CAP
1 *700:E 2.595e-05
2 *378:7 0.00028763
3 *378:6 0.00028504
4 *378:5 5.002e-05
5 *378:4 5.002e-05
6 *378:3 6.081e-05
7 *378:2 6.34e-05
8 *996:ZN 2.595e-05

*RES
1 *996:ZN *378:2 1.5
2 *378:2 *378:3 2.52
3 *378:4 *378:3 0.28
4 *378:4 *378:5 1.4
5 *378:5 *378:6 0.28
6 *378:6 *378:7 6.44
7 *378:7 *700:E 1.5
*END

*D_NET *453 0.00043642

*CONN
*I *1175:ZN O *C 67 35 *L 0 *D MUX2ND0
*I *1116:A2 I *C 67 38 *L 0.001 *D NR2XD0

*CAP
1 *1116:A2 2.595e-05
2 *453:5 7.639e-05
3 *453:4 8.471e-05
4 *453:3 0.00011587
5 *453:2 0.00010755
6 *1175:ZN 2.595e-05

*RES
1 *1175:ZN *453:2 1.5
2 *453:2 *453:3 3.36
3 *453:3 *453:4 0.56
4 *453:4 *453:5 1.68
5 *453:5 *1116:A2 1.5
*END

*D_NET *294 0.00061374

*CONN
*I *907:ZN O *C 68 74 *L 0 *D AOI22D0