*SPEF "IEEE 1481-1998"
*DESIGN "lab1"
*DATE "Wed Oct  7 15:53:46 2015"
*VENDOR "Silicon Perspective, A Cadence Company"
*PROGRAM "Encounter"
*VERSION "10.12-s181_1"
*DESIGN_FLOW "COUPLING C" "PIN_CAP NONE" "NAME_SCOPE LOCAL"
*DIVIDER /
*DELIMITER :
*BUS_DELIMITER []
*T_UNIT 1 NS
*C_UNIT 1 PF
*R_UNIT 1 OHM
*L_UNIT 1 HENRY

*NAME_MAP

*1 A0[1]
*2 A0[7]
*3 A1[0]
*4 A1[1]
*5 A1[7]
*6 B0[0]
*7 B0[6]
*8 B1[0]
*9 B1[2]
*10 B1[3]
*11 B1[4]
*12 B1[5]
*13 B1[6]
*14 B1[7]
*15 FE_OCPN10_n_8748
*16 FE_OCPN11_n_8745
*17 FE_OCPN12_n_333
*18 FE_OCPN13_n_333
*19 FE_OCPN14_B0_6_
*20 FE_OCPN15_n_84
*21 FE_OCPN16_n_84
*22 FE_OCPN17_B1_7_
*23 FE_OCPN18_B1_7_
*24 FE_OCPN19_B1_2_
*25 FE_OCPN21_n_4448
*26 FE_OCPN22_n_4448
*27 FE_OCPN23_n_4448
*28 FE_OCPN246_n_4448
*29 FE_OCPN247_n_4448
*30 FE_OCPN248_B1_6_
*31 FE_OCPN249_B1_6_
*32 FE_OCPN24_n_4448
*33 FE_OCPN250_B1_4_
*34 FE_OCPN251_n_9866
*35 FE_OCPN253_n_9006
*36 FE_OCPN25_B1_6_
*37 FE_OCPN26_B1_6_
*38 FE_OCPN27_B1_4_
*39 FE_OCPN282_B1_0_
*40 FE_OCPN283_B1_5_
*41 FE_OCPN285_n_4448
*42 FE_OCPN286_B1_6_
*43 FE_OCPN288_n_213
*44 FE_OCPN289_n_958
*45 FE_OCPN28_B0_0_
*46 FE_OCPN290_n_231
*47 FE_OCPN291_n_231
*48 FE_OCPN292_n_231
*49 FE_OCPN293_n_231
*50 FE_OCPN294_n_231
*51 FE_OCPN295_n_831
*52 FE_OCPN296_B0_0_
*53 FE_OCPN297_B1_6_
*54 FE_OCPN298_n_13536
*55 FE_OCPN299_n_980
*56 FE_OCPN29_n_11046
*57 FE_OCPN300_n_1877
*58 FE_OCPN301_n_1865
*59 FE_OCPN302_n_1777
*60 FE_OCPN30_n_9142
*61 FE_OCPN31_n_5918
*62 FE_OCPN32_n_5918
*63 FE_OCPN33_n_5903
*64 FE_OCPN34_n_5903
*65 FE_OCPN35_n_5903
*66 FE_OCPN37_n_213
*67 FE_OCPN38_n_213
*68 FE_OCPN39_n_22
*69 FE_OCPN3_B1_0_
*70 FE_OCPN40_n_22
*71 FE_OCPN42_n_1970
*72 FE_OCPN43_n_831
*73 FE_OCPN44_FE_OFN0_n_4455
*74 FE_OCPN45_FE_OFN0_n_4455
*75 FE_OCPN46_FE_OFN0_n_4455
*76 FE_OCPN47_n_12201
*77 FE_OCPN48_n_9079
*78 FE_OCPN4_B1_0_
*79 FE_OCPN50_n_352
*80 FE_OCPN51_n_1518
*81 FE_OCPN52_n_2460
*82 FE_OCPN533_n_14054
*83 FE_OCPN534_n_11045
*84 FE_OCPN535_n_11045
*85 FE_OCPN536_B1_6_
*86 FE_OCPN537_B0_0_
*87 FE_OCPN539_FE_OCP_RBN316_n_4459
*88 FE_OCPN53_n_8737
*89 FE_OCPN540_n_11445
*90 FE_OCPN548_n_14054
*91 FE_OCPN54_n_1505
*92 FE_OCPN550_n_229
*93 FE_OCPN551_n_229
*94 FE_OCPN552_B1_7_
*95 FE_OCPN553_n_4453
*96 FE_OCPN554_n_442
*97 FE_OCPN555_B1_4_
*98 FE_OCPN556_n_878
*99 FE_OCPN557_n_9142
*100 FE_OCPN558_n_213
*101 FE_OCPN559_n_4448
*102 FE_OCPN55_n_2053
*103 FE_OCPN560_n_2113
*104 FE_OCPN59_n_8907
*105 FE_OCPN5_n_14054
*106 FE_OCPN60_n_11045
*107 FE_OCPN62_n_4544
*108 FE_OCPN6_n_14054
*109 FE_OCPN720_B1_7_
*110 FE_OCPN721_B1_7_
*111 FE_OCPN722_n_9388
*112 FE_OCPN7_n_9141
*113 FE_OCPN8_n_9141
*114 FE_OCPN9_n_9141
*115 FE_OCP_RBN103_A1_1_
*116 FE_OCP_RBN109_n_4415
*117 FE_OCP_RBN110_n_4415
*118 FE_OCP_RBN111_n_4415
*119 FE_OCP_RBN112_n_4415
*120 FE_OCP_RBN113_n_4415
*121 FE_OCP_RBN120_n_4450
*122 FE_OCP_RBN121_n_4450
*123 FE_OCP_RBN122_n_4450
*124 FE_OCP_RBN123_n_4450
*125 FE_OCP_RBN124_n_4450
*126 FE_OCP_RBN140_A0_1_
*127 FE_OCP_RBN141_n_9267
*128 FE_OCP_RBN142_n_9267
*129 FE_OCP_RBN143_n_9267
*130 FE_OCP_RBN144_n_9267
*131 FE_OCP_RBN145_n_9267
*132 FE_OCP_RBN174_n_386
*133 FE_OCP_RBN178_n_9165
*134 FE_OCP_RBN179_n_9165
*135 FE_OCP_RBN185_n_1769
*136 FE_OCP_RBN191_n_12825
*137 FE_OCP_RBN192_n_12825
*138 FE_OCP_RBN193_n_12825
*139 FE_OCP_RBN201_n_14201
*140 FE_OCP_RBN202_n_13379
*141 FE_OCP_RBN203_n_13379
*142 FE_OCP_RBN205_n_2618
*143 FE_OCP_RBN206_n_2618
*144 FE_OCP_RBN207_n_8207
*145 FE_OCP_RBN219_n_3630
*146 FE_OCP_RBN220_n_3630
*147 FE_OCP_RBN225_n_13840
*148 FE_OCP_RBN226_n_13840
*149 FE_OCP_RBN231_n_10232
*150 FE_OCP_RBN232_n_13891
*151 FE_OCP_RBN233_n_13891
*152 FE_OCP_RBN234_n_13891
*153 FE_OCP_RBN237_n_4172
*154 FE_OCP_RBN241_n_13207
*155 FE_OCP_RBN245_n_8395
*156 FE_OCP_RBN305_n_369
*157 FE_OCP_RBN306_n_369
*158 FE_OCP_RBN307_n_369
*159 FE_OCP_RBN308_n_369
*160 FE_OCP_RBN309_n_4438
*161 FE_OCP_RBN310_n_4438
*162 FE_OCP_RBN311_n_4438
*163 FE_OCP_RBN312_n_4438
*164 FE_OCP_RBN313_n_4459
*165 FE_OCP_RBN314_n_4459
*166 FE_OCP_RBN315_n_4459
*167 FE_OCP_RBN316_n_4459
*168 FE_OCP_RBN317_n_4459
*169 FE_OCP_RBN318_n_4459
*170 FE_OCP_RBN319_n_4447
*171 FE_OCP_RBN320_n_4447
*172 FE_OCP_RBN321_n_4447
*173 FE_OCP_RBN322_n_4447
*174 FE_OCP_RBN323_n_4447
*175 FE_OCP_RBN327_n_8921
*176 FE_OCP_RBN329_n_8921
*177 FE_OCP_RBN333_n_5947
*178 FE_OCP_RBN336_n_5945
*179 FE_OCP_RBN342_n_5718
*180 FE_OCP_RBN347_n_623
*181 FE_OCP_RBN348_n_623
*182 FE_OCP_RBN349_n_623
*183 FE_OCP_RBN358_A0_1_
*184 FE_OCP_RBN371_A1_1_
*185 FE_OCP_RBN374_n_8921
*186 FE_OCP_RBN375_n_13927
*187 FE_OCP_RBN376_n_13927
*188 FE_OCP_RBN378_n_4412
*189 FE_OCP_RBN379_n_4412
*190 FE_OCP_RBN390_n_6000
*191 FE_OCP_RBN392_n_473
*192 FE_OCP_RBN395_n_13563
*193 FE_OCP_RBN398_n_5584
*194 FE_OCP_RBN399_n_9155
*195 FE_OCP_RBN400_n_9155
*196 FE_OCP_RBN406_n_13235
*197 FE_OCP_RBN407_n_6780
*198 FE_OCP_RBN408_n_6780
*199 FE_OCP_RBN413_n_11466
*200 FE_OCP_RBN415_n_13280
*201 FE_OCP_RBN419_n_1569
*202 FE_OCP_RBN420_n_14001
*203 FE_OCP_RBN422_n_14225
*204 FE_OCP_RBN424_n_12878
*205 FE_OCP_RBN433_n_11452
*206 FE_OCP_RBN435_n_2175
*207 FE_OCP_RBN436_n_13164
*208 FE_OCP_RBN437_n_13164
*209 FE_OCP_RBN440_n_2671
*210 FE_OCP_RBN441_n_2671
*211 FE_OCP_RBN442_n_5560
*212 FE_OCP_RBN443_n_12806
*213 FE_OCP_RBN444_n_12806
*214 FE_OCP_RBN445_n_12806
*215 FE_OCP_RBN447_n_9293
*216 FE_OCP_RBN455_n_8323
*217 FE_OCP_RBN456_n_8323
*218 FE_OCP_RBN457_n_2539
*219 FE_OCP_RBN461_n_9020
*220 FE_OCP_RBN464_n_11759
*221 FE_OCP_RBN465_n_11759
*222 FE_OCP_RBN466_n_2817
*223 FE_OCP_RBN467_n_2817
*224 FE_OCP_RBN470_n_2936
*225 FE_OCP_RBN473_n_8375
*226 FE_OCP_RBN474_n_3242
*227 FE_OCP_RBN477_n_6392
*228 FE_OCP_RBN479_n_3122
*229 FE_OCP_RBN481_n_10070
*230 FE_OCP_RBN482_n_13065
*231 FE_OCP_RBN483_n_13065
*232 FE_OCP_RBN484_n_12726
*233 FE_OCP_RBN494_n_4535
*234 FE_OCP_RBN500_n_7550
*235 FE_OCP_RBN503_FE_RN_670_0
*236 FE_OCP_RBN504_FE_RN_670_0
*237 FE_OCP_RBN507_n_10072
*238 FE_OCP_RBN508_n_10072
*239 FE_OCP_RBN510_n_3894
*240 FE_OCP_RBN512_n_3981
*241 FE_OCP_RBN513_n_13888
*242 FE_OCP_RBN514_n_13888
*243 FE_OCP_RBN516_n_13848
*244 FE_OCP_RBN519_n_9839
*245 FE_OCP_RBN522_n_6811
*246 FE_OCP_RBN524_n_6935
*247 FE_OCP_RBN527_n_13803
*248 FE_OCP_RBN532_n_4132
*249 FE_OCP_RBN545_n_13960
*250 FE_OCP_RBN546_n_13960
*251 FE_OCP_RBN547_n_13960
*252 FE_OCP_RBN561_n_4440
*253 FE_OCP_RBN562_n_4440
*254 FE_OCP_RBN563_n_4440
*255 FE_OCP_RBN564_n_4440
*256 FE_OCP_RBN565_n_4440
*257 FE_OCP_RBN566_A1_0_
*258 FE_OCP_RBN567_A1_0_
*259 FE_OCP_RBN568_A1_0_
*260 FE_OCP_RBN569_A0_7_
*261 FE_OCP_RBN570_A0_7_
*262 FE_OCP_RBN571_A0_7_
*263 FE_OCP_RBN572_A0_7_
*264 FE_OCP_RBN573_n_4410
*265 FE_OCP_RBN574_n_4410
*266 FE_OCP_RBN575_n_4410
*267 FE_OCP_RBN576_n_4410
*268 FE_OCP_RBN577_n_4410
*269 FE_OCP_RBN579_n_6194
*270 FE_OCP_RBN581_n_5974
*271 FE_OCP_RBN583_n_170
*272 FE_OCP_RBN586_n_514
*273 FE_OCP_RBN587_n_514
*274 FE_OCP_RBN591_A1_1_
*275 FE_OCP_RBN592_A1_1_
*276 FE_OCP_RBN593_A1_1_
*277 FE_OCP_RBN599_n_4450
*278 FE_OCP_RBN600_n_4450
*279 FE_OCP_RBN602_A0_1_
*280 FE_OCP_RBN604_n_5912
*281 FE_OCP_RBN605_n_5912
*282 FE_OCP_RBN606_n_1561
*283 FE_OCP_RBN608_n_6730
*284 FE_OCP_RBN609_n_13987
*285 FE_OCP_RBN611_n_9780
*286 FE_OCP_RBN615_n_9524
*287 FE_OCP_RBN618_n_11356
*288 FE_OCP_RBN619_n_1363
*289 FE_OCP_RBN620_FE_RN_453_0
*290 FE_OCP_RBN623_n_13252
*291 FE_OCP_RBN625_n_1961
*292 FE_OCP_RBN626_n_1961
*293 FE_OCP_RBN628_n_4485
*294 FE_OCP_RBN629_n_14254
*295 FE_OCP_RBN630_n_2163
*296 FE_OCP_RBN631_n_2163
*297 FE_OCP_RBN632_n_12240
*298 FE_OCP_RBN634_n_2178
*299 FE_OCP_RBN637_n_8850
*300 FE_OCP_RBN638_n_2273
*301 FE_OCP_RBN644_n_6992
*302 FE_OCP_RBN645_n_6992
*303 FE_OCP_RBN647_n_2568
*304 FE_OCP_RBN650_n_2757
*305 FE_OCP_RBN651_n_2757
*306 FE_OCP_RBN652_n_2645
*307 FE_OCP_RBN654_n_2549
*308 FE_OCP_RBN655_n_12808
*309 FE_OCP_RBN656_n_12808
*310 FE_OCP_RBN659_n_13380
*311 FE_OCP_RBN661_n_13038
*312 FE_OCP_RBN663_n_3031
*313 FE_OCP_RBN665_n_2795
*314 FE_OCP_RBN667_n_9040
*315 FE_OCP_RBN668_n_13379
*316 FE_OCP_RBN672_n_13631
*317 FE_OCP_RBN674_n_11000
*318 FE_OCP_RBN677_n_9925
*319 FE_OCP_RBN680_n_9019
*320 FE_OCP_RBN682_n_9925
*321 FE_OCP_RBN685_n_3087
*322 FE_OCP_RBN686_n_3087
*323 FE_OCP_RBN690_n_3208
*324 FE_OCP_RBN691_n_8479
*325 FE_OCP_RBN693_n_12514
*326 FE_OCP_RBN699_n_9636
*327 FE_OCP_RBN700_n_5745
*328 FE_OCP_RBN701_n_5745
*329 FE_OCP_RBN702_n_8266
*330 FE_OCP_RBN703_n_8266
*331 FE_OCP_RBN706_n_9968
*332 FE_OCP_RBN708_n_11055
*333 FE_OCP_RBN710_n_3874
*334 FE_OCP_RBN712_n_10234
*335 FE_OCP_RBN714_n_13517
*336 FE_OCP_RBN716_n_10201
*337 FE_OCP_RBN717_n_10201
*338 FE_OCP_RBN719_n_11303
*339 FE_OCP_RBN726_n_4415
*340 FE_OCP_RBN729_n_3500
*341 FE_OCP_RBN72_A1_0_
*342 FE_OCP_RBN89_A0_1_
*343 FE_OCP_RBN90_A0_1_
*344 FE_OCP_RBN92_A0_1_
*345 FE_OCP_RBN93_A0_1_
*346 FE_OCP_RBN95_A0_1_
*347 FE_OCP_RBN96_n_4412
*348 FE_OCP_RBN97_n_4412
*349 FE_OCP_RBN98_n_4412
*350 FE_OFN0_n_4455
*351 FE_OFN1_B1_2_
*352 FE_PSN730_n_2666
*353 FE_PSN731_n_4582
*354 FE_PSN732_n_9044
*355 FE_PSN733_n_12987
*356 FE_PSN734_n_9947
*357 FE_RN_0_0
*358 FE_RN_1011_0
*359 FE_RN_1012_0
*360 FE_RN_1013_0
*361 FE_RN_1014_0
*362 FE_RN_1015_0
*363 FE_RN_1016_0
*364 FE_RN_1017_0
*365 FE_RN_1018_0
*366 FE_RN_1019_0
*367 FE_RN_1020_0
*368 FE_RN_1021_0
*369 FE_RN_1022_0
*370 FE_RN_1023_0
*371 FE_RN_1024_0
*372 FE_RN_1025_0
*373 FE_RN_1026_0
*374 FE_RN_1027_0
*375 FE_RN_1028_0
*376 FE_RN_1029_0
*377 FE_RN_1035_0
*378 FE_RN_1036_0
*379 FE_RN_1038_0
*380 FE_RN_1039_0
*381 FE_RN_1041_0
*382 FE_RN_1042_0
*383 FE_RN_1043_0
*384 FE_RN_1044_0
*385 FE_RN_1045_0
*386 FE_RN_1046_0
*387 FE_RN_1047_0
*388 FE_RN_1048_0
*389 FE_RN_1049_0
*390 FE_RN_1050_0
*391 FE_RN_1051_0
*392 FE_RN_1052_0
*393 FE_RN_1053_0
*394 FE_RN_1054_0
*395 FE_RN_1055_0
*396 FE_RN_1056_0
*397 FE_RN_1057_0
*398 FE_RN_1058_0
*399 FE_RN_1059_0
*400 FE_RN_1060_0
*401 FE_RN_1061_0
*402 FE_RN_1062_0
*403 FE_RN_1063_0
*404 FE_RN_1064_0
*405 FE_RN_1065_0
*406 FE_RN_1066_0
*407 FE_RN_1067_0
*408 FE_RN_1068_0
*409 FE_RN_1069_0
*410 FE_RN_1070_0
*411 FE_RN_1071_0
*412 FE_RN_1072_0
*413 FE_RN_1073_0
*414 FE_RN_1074_0
*415 FE_RN_1075_0
*416 FE_RN_1076_0
*417 FE_RN_1077_0
*418 FE_RN_1078_0
*419 FE_RN_1079_0
*420 FE_RN_1080_0
*421 FE_RN_1081_0
*422 FE_RN_1085_0
*423 FE_RN_1087_0
*424 FE_RN_1096_0
*425 FE_RN_1098_0
*426 FE_RN_1099_0
*427 FE_RN_10_0
*428 FE_RN_1100_0
*429 FE_RN_1101_0
*430 FE_RN_1102_0
*431 FE_RN_1105_0
*432 FE_RN_1106_0
*433 FE_RN_1110_0
*434 FE_RN_1112_0
*435 FE_RN_1113_0
*436 FE_RN_1114_0
*437 FE_RN_1115_0
*438 FE_RN_1116_0
*439 FE_RN_1117_0
*440 FE_RN_1122_0
*441 FE_RN_1123_0
*442 FE_RN_1124_0
*443 FE_RN_1125_0
*444 FE_RN_1126_0
*445 FE_RN_1127_0
*446 FE_RN_1129_0
*447 FE_RN_1132_0
*448 FE_RN_1133_0
*449 FE_RN_1134_0
*450 FE_RN_1135_0
*451 FE_RN_1136_0
*452 FE_RN_1137_0
*453 FE_RN_1138_0
*454 FE_RN_1139_0
*455 FE_RN_1140_0
*456 FE_RN_1142_0
*457 FE_RN_1143_0
*458 FE_RN_1145_0
*459 FE_RN_1146_0
*460 FE_RN_1147_0
*461 FE_RN_1148_0
*462 FE_RN_1149_0
*463 FE_RN_1150_0
*464 FE_RN_1151_0
*465 FE_RN_1152_0
*466 FE_RN_1155_0
*467 FE_RN_1160_0
*468 FE_RN_1161_0
*469 FE_RN_1162_0
*470 FE_RN_1163_0
*471 FE_RN_1164_0
*472 FE_RN_1165_0
*473 FE_RN_1166_0
*474 FE_RN_1167_0
*475 FE_RN_1168_0
*476 FE_RN_1169_0
*477 FE_RN_1170_0
*478 FE_RN_1172_0
*479 FE_RN_1173_0
*480 FE_RN_1174_0
*481 FE_RN_1175_0
*482 FE_RN_1176_0
*483 FE_RN_1177_0
*484 FE_RN_1178_0
*485 FE_RN_1179_0
*486 FE_RN_1180_0
*487 FE_RN_1181_0
*488 FE_RN_1182_0
*489 FE_RN_1183_0
*490 FE_RN_1184_0
*491 FE_RN_1187_0
*492 FE_RN_1188_0
*493 FE_RN_1189_0
*494 FE_RN_1198_0
*495 FE_RN_1199_0
*496 FE_RN_11_0
*497 FE_RN_1200_0
*498 FE_RN_1201_0
*499 FE_RN_1264_0
*500 FE_RN_1265_0
*501 FE_RN_1266_0
*502 FE_RN_1269_0
*503 FE_RN_1270_0
*504 FE_RN_1272_0
*505 FE_RN_1273_0
*506 FE_RN_1274_0
*507 FE_RN_1275_0
*508 FE_RN_1276_0
*509 FE_RN_1277_0
*510 FE_RN_1278_0
*511 FE_RN_1279_0
*512 FE_RN_1280_0
*513 FE_RN_1282_0
*514 FE_RN_1283_0
*515 FE_RN_1284_0
*516 FE_RN_1285_0
*517 FE_RN_1286_0
*518 FE_RN_1287_0
*519 FE_RN_1289_0
*520 FE_RN_1290_0
*521 FE_RN_1291_0
*522 FE_RN_1292_0
*523 FE_RN_1293_0
*524 FE_RN_1294_0
*525 FE_RN_1295_0
*526 FE_RN_1297_0
*527 FE_RN_1299_0
*528 FE_RN_12_0
*529 FE_RN_1300_0
*530 FE_RN_1301_0
*531 FE_RN_1303_0
*532 FE_RN_1304_0
*533 FE_RN_1305_0
*534 FE_RN_1306_0
*535 FE_RN_1307_0
*536 FE_RN_1308_0
*537 FE_RN_1309_0
*538 FE_RN_1311_0
*539 FE_RN_1312_0
*540 FE_RN_1313_0
*541 FE_RN_1314_0
*542 FE_RN_1315_0
*543 FE_RN_1316_0
*544 FE_RN_1317_0
*545 FE_RN_1365_0
*546 FE_RN_1534_0
*547 FE_RN_1535_0
*548 FE_RN_1536_0
*549 FE_RN_1537_0
*550 FE_RN_1538_0
*551 FE_RN_1539_0
*552 FE_RN_1540_0
*553 FE_RN_1541_0
*554 FE_RN_1542_0
*555 FE_RN_1543_0
*556 FE_RN_1544_0
*557 FE_RN_1545_0
*558 FE_RN_1547_0
*559 FE_RN_1549_0
*560 FE_RN_1550_0
*561 FE_RN_1551_0
*562 FE_RN_1552_0
*563 FE_RN_1554_0
*564 FE_RN_1555_0
*565 FE_RN_1556_0
*566 FE_RN_1557_0
*567 FE_RN_1558_0
*568 FE_RN_1559_0
*569 FE_RN_1560_0
*570 FE_RN_1561_0
*571 FE_RN_1562_0
*572 FE_RN_1564_0
*573 FE_RN_1565_0
*574 FE_RN_1566_0
*575 FE_RN_1567_0
*576 FE_RN_1568_0
*577 FE_RN_1569_0
*578 FE_RN_1570_0
*579 FE_RN_1571_0
*580 FE_RN_1572_0
*581 FE_RN_1573_0
*582 FE_RN_1574_0
*583 FE_RN_1575_0
*584 FE_RN_1576_0
*585 FE_RN_1577_0
*586 FE_RN_1578_0
*587 FE_RN_1579_0
*588 FE_RN_1580_0
*589 FE_RN_1581_0
*590 FE_RN_1582_0
*591 FE_RN_1583_0
*592 FE_RN_1584_0
*593 FE_RN_1585_0
*594 FE_RN_1586_0
*595 FE_RN_1587_0
*596 FE_RN_1588_0
*597 FE_RN_1589_0
*598 FE_RN_1590_0
*599 FE_RN_1591_0
*600 FE_RN_1592_0
*601 FE_RN_1593_0
*602 FE_RN_1594_0
*603 FE_RN_1595_0
*604 FE_RN_1596_0
*605 FE_RN_1597_0
*606 FE_RN_1598_0
*607 FE_RN_1599_0
*608 FE_RN_1600_0
*609 FE_RN_1601_0
*610 FE_RN_1602_0
*611 FE_RN_1603_0
*612 FE_RN_1604_0
*613 FE_RN_1605_0
*614 FE_RN_1606_0
*615 FE_RN_1607_0
*616 FE_RN_1608_0
*617 FE_RN_1609_0
*618 FE_RN_1610_0
*619 FE_RN_1613_0
*620 FE_RN_1614_0
*621 FE_RN_1615_0
*622 FE_RN_1616_0
*623 FE_RN_1617_0
*624 FE_RN_1618_0
*625 FE_RN_1619_0
*626 FE_RN_1620_0
*627 FE_RN_1621_0
*628 FE_RN_1622_0
*629 FE_RN_1623_0
*630 FE_RN_1624_0
*631 FE_RN_1625_0
*632 FE_RN_1626_0
*633 FE_RN_1627_0
*634 FE_RN_1629_0
*635 FE_RN_1630_0
*636 FE_RN_1631_0
*637 FE_RN_1632_0
*638 FE_RN_1633_0
*639 FE_RN_1634_0
*640 FE_RN_1635_0
*641 FE_RN_1636_0
*642 FE_RN_1637_0
*643 FE_RN_1638_0
*644 FE_RN_1639_0
*645 FE_RN_1640_0
*646 FE_RN_1641_0
*647 FE_RN_1642_0
*648 FE_RN_1643_0
*649 FE_RN_1644_0
*650 FE_RN_1645_0
*651 FE_RN_1646_0
*652 FE_RN_1647_0
*653 FE_RN_1648_0
*654 FE_RN_1649_0
*655 FE_RN_1650_0
*656 FE_RN_1651_0
*657 FE_RN_1652_0
*658 FE_RN_1653_0
*659 FE_RN_1654_0
*660 FE_RN_1655_0
*661 FE_RN_1656_0
*662 FE_RN_1657_0
*663 FE_RN_1658_0
*664 FE_RN_1659_0
*665 FE_RN_1660_0
*666 FE_RN_1661_0
*667 FE_RN_1662_0
*668 FE_RN_1663_0
*669 FE_RN_1664_0
*670 FE_RN_1665_0
*671 FE_RN_1666_0
*672 FE_RN_1667_0
*673 FE_RN_1668_0
*674 FE_RN_1669_0
*675 FE_RN_1670_0
*676 FE_RN_1671_0
*677 FE_RN_1672_0
*678 FE_RN_1673_0
*679 FE_RN_1674_0
*680 FE_RN_1675_0
*681 FE_RN_1676_0
*682 FE_RN_1677_0
*683 FE_RN_1678_0
*684 FE_RN_1679_0
*685 FE_RN_1680_0
*686 FE_RN_1681_0
*687 FE_RN_1682_0
*688 FE_RN_1683_0
*689 FE_RN_1684_0
*690 FE_RN_1685_0
*691 FE_RN_1686_0
*692 FE_RN_1688_0
*693 FE_RN_1689_0
*694 FE_RN_1690_0
*695 FE_RN_1691_0
*696 FE_RN_1692_0
*697 FE_RN_1693_0
*698 FE_RN_1694_0
*699 FE_RN_1695_0
*700 FE_RN_1696_0
*701 FE_RN_1697_0
*702 FE_RN_1698_0
*703 FE_RN_1699_0
*704 FE_RN_1700_0
*705 FE_RN_1701_0
*706 FE_RN_1702_0
*707 FE_RN_1703_0
*708 FE_RN_1704_0
*709 FE_RN_1705_0
*710 FE_RN_1706_0
*711 FE_RN_1707_0
*712 FE_RN_1708_0
*713 FE_RN_1709_0
*714 FE_RN_1710_0
*715 FE_RN_1711_0
*716 FE_RN_1712_0
*717 FE_RN_1713_0
*718 FE_RN_1714_0
*719 FE_RN_1715_0
*720 FE_RN_1716_0
*721 FE_RN_1717_0
*722 FE_RN_1718_0
*723 FE_RN_1719_0
*724 FE_RN_1720_0
*725 FE_RN_1721_0
*726 FE_RN_1722_0
*727 FE_RN_1723_0
*728 FE_RN_1724_0
*729 FE_RN_1725_0
*730 FE_RN_1726_0
*731 FE_RN_1727_0
*732 FE_RN_1728_0
*733 FE_RN_1729_0
*734 FE_RN_1730_0
*735 FE_RN_1731_0
*736 FE_RN_1732_0
*737 FE_RN_1733_0
*738 FE_RN_1734_0
*739 FE_RN_1735_0
*740 FE_RN_1736_0
*741 FE_RN_1737_0
*742 FE_RN_1738_0
*743 FE_RN_1739_0
*744 FE_RN_1740_0
*745 FE_RN_1741_0
*746 FE_RN_1742_0
*747 FE_RN_1743_0
*748 FE_RN_1744_0
*749 FE_RN_1745_0
*750 FE_RN_1747_0
*751 FE_RN_1748_0
*752 FE_RN_1749_0
*753 FE_RN_1750_0
*754 FE_RN_1751_0
*755 FE_RN_1752_0
*756 FE_RN_1753_0
*757 FE_RN_1754_0
*758 FE_RN_1755_0
*759 FE_RN_1756_0
*760 FE_RN_1757_0
*761 FE_RN_1758_0
*762 FE_RN_1759_0
*763 FE_RN_1760_0
*764 FE_RN_1761_0
*765 FE_RN_1769_0
*766 FE_RN_1770_0
*767 FE_RN_1771_0
*768 FE_RN_1772_0
*769 FE_RN_1773_0
*770 FE_RN_1774_0
*771 FE_RN_1775_0
*772 FE_RN_1776_0
*773 FE_RN_1777_0
*774 FE_RN_1785_0
*775 FE_RN_1786_0
*776 FE_RN_1787_0
*777 FE_RN_1788_0
*778 FE_RN_1806_0
*779 FE_RN_1809_0
*780 FE_RN_1810_0
*781 FE_RN_1811_0
*782 FE_RN_1812_0
*783 FE_RN_1816_0
*784 FE_RN_1841_0
*785 FE_RN_1842_0
*786 FE_RN_1843_0
*787 FE_RN_1844_0
*788 FE_RN_1845_0
*789 FE_RN_1846_0
*790 FE_RN_1847_0
*791 FE_RN_1848_0
*792 FE_RN_1849_0
*793 FE_RN_1850_0
*794 FE_RN_1851_0
*795 FE_RN_1852_0
*796 FE_RN_1853_0
*797 FE_RN_1854_0
*798 FE_RN_1855_0
*799 FE_RN_1856_0
*800 FE_RN_1857_0
*801 FE_RN_1858_0
*802 FE_RN_1859_0
*803 FE_RN_1860_0
*804 FE_RN_1861_0
*805 FE_RN_196_0
*806 FE_RN_197_0
*807 FE_RN_198_0
*808 FE_RN_1_0
*809 FE_RN_201_0
*810 FE_RN_202_0
*811 FE_RN_203_0
*812 FE_RN_204_0
*813 FE_RN_205_0
*814 FE_RN_206_0
*815 FE_RN_207_0
*816 FE_RN_210_0
*817 FE_RN_216_0
*818 FE_RN_218_0
*819 FE_RN_220_0
*820 FE_RN_221_0
*821 FE_RN_222_0
*822 FE_RN_223_0
*823 FE_RN_224_0
*824 FE_RN_225_0
*825 FE_RN_226_0
*826 FE_RN_227_0
*827 FE_RN_229_0
*828 FE_RN_230_0
*829 FE_RN_232_0
*830 FE_RN_233_0
*831 FE_RN_239_0
*832 FE_RN_240_0
*833 FE_RN_247_0
*834 FE_RN_248_0
*835 FE_RN_249_0
*836 FE_RN_250_0
*837 FE_RN_251_0
*838 FE_RN_252_0
*839 FE_RN_253_0
*840 FE_RN_256_0
*841 FE_RN_258_0
*842 FE_RN_259_0
*843 FE_RN_260_0
*844 FE_RN_262_0
*845 FE_RN_263_0
*846 FE_RN_264_0
*847 FE_RN_266_0
*848 FE_RN_267_0
*849 FE_RN_269_0
*850 FE_RN_270_0
*851 FE_RN_271_0
*852 FE_RN_272_0
*853 FE_RN_273_0
*854 FE_RN_274_0
*855 FE_RN_275_0
*856 FE_RN_277_0
*857 FE_RN_278_0
*858 FE_RN_279_0
*859 FE_RN_280_0
*860 FE_RN_286_0
*861 FE_RN_288_0
*862 FE_RN_289_0
*863 FE_RN_292_0
*864 FE_RN_293_0
*865 FE_RN_294_0
*866 FE_RN_298_0
*867 FE_RN_2_0
*868 FE_RN_301_0
*869 FE_RN_302_0
*870 FE_RN_305_0
*871 FE_RN_306_0
*872 FE_RN_307_0
*873 FE_RN_308_0
*874 FE_RN_312_0
*875 FE_RN_314_0
*876 FE_RN_315_0
*877 FE_RN_316_0
*878 FE_RN_319_0
*879 FE_RN_320_0
*880 FE_RN_321_0
*881 FE_RN_322_0
*882 FE_RN_325_0
*883 FE_RN_328_0
*884 FE_RN_330_0
*885 FE_RN_331_0
*886 FE_RN_333_0
*887 FE_RN_336_0
*888 FE_RN_337_0
*889 FE_RN_338_0
*890 FE_RN_341_0
*891 FE_RN_344_0
*892 FE_RN_345_0
*893 FE_RN_346_0
*894 FE_RN_347_0
*895 FE_RN_348_0
*896 FE_RN_349_0
*897 FE_RN_350_0
*898 FE_RN_351_0
*899 FE_RN_352_0
*900 FE_RN_353_0
*901 FE_RN_355_0
*902 FE_RN_356_0
*903 FE_RN_357_0
*904 FE_RN_358_0
*905 FE_RN_359_0
*906 FE_RN_360_0
*907 FE_RN_361_0
*908 FE_RN_366_0
*909 FE_RN_367_0
*910 FE_RN_368_0
*911 FE_RN_370_0
*912 FE_RN_372_0
*913 FE_RN_373_0
*914 FE_RN_374_0
*915 FE_RN_380_0
*916 FE_RN_381_0
*917 FE_RN_382_0
*918 FE_RN_383_0
*919 FE_RN_385_0
*920 FE_RN_386_0
*921 FE_RN_387_0
*922 FE_RN_389_0
*923 FE_RN_390_0
*924 FE_RN_391_0
*925 FE_RN_394_0
*926 FE_RN_395_0
*927 FE_RN_397_0
*928 FE_RN_398_0
*929 FE_RN_399_0
*930 FE_RN_3_0
*931 FE_RN_400_0
*932 FE_RN_401_0
*933 FE_RN_403_0
*934 FE_RN_404_0
*935 FE_RN_405_0
*936 FE_RN_406_0
*937 FE_RN_407_0
*938 FE_RN_408_0
*939 FE_RN_409_0
*940 FE_RN_414_0
*941 FE_RN_415_0
*942 FE_RN_416_0
*943 FE_RN_417_0
*944 FE_RN_418_0
*945 FE_RN_419_0
*946 FE_RN_420_0
*947 FE_RN_421_0
*948 FE_RN_422_0
*949 FE_RN_425_0
*950 FE_RN_426_0
*951 FE_RN_427_0
*952 FE_RN_428_0
*953 FE_RN_429_0
*954 FE_RN_430_0
*955 FE_RN_431_0
*956 FE_RN_432_0
*957 FE_RN_433_0
*958 FE_RN_435_0
*959 FE_RN_438_0
*960 FE_RN_439_0
*961 FE_RN_445_0
*962 FE_RN_446_0
*963 FE_RN_447_0
*964 FE_RN_448_0
*965 FE_RN_450_0
*966 FE_RN_451_0
*967 FE_RN_452_0
*968 FE_RN_453_0
*969 FE_RN_454_0
*970 FE_RN_455_0
*971 FE_RN_456_0
*972 FE_RN_457_0
*973 FE_RN_458_0
*974 FE_RN_459_0
*975 FE_RN_467_0
*976 FE_RN_468_0
*977 FE_RN_469_0
*978 FE_RN_470_0
*979 FE_RN_471_0
*980 FE_RN_474_0
*981 FE_RN_475_0
*982 FE_RN_476_0
*983 FE_RN_477_0
*984 FE_RN_478_0
*985 FE_RN_479_0
*986 FE_RN_480_0
*987 FE_RN_481_0
*988 FE_RN_482_0
*989 FE_RN_488_0
*990 FE_RN_489_0
*991 FE_RN_490_0
*992 FE_RN_492_0
*993 FE_RN_493_0
*994 FE_RN_498_0
*995 FE_RN_509_0
*996 FE_RN_510_0
*997 FE_RN_511_0
*998 FE_RN_512_0
*999 FE_RN_513_0
*1000 FE_RN_514_0
*1001 FE_RN_516_0
*1002 FE_RN_517_0
*1003 FE_RN_518_0
*1004 FE_RN_519_0
*1005 FE_RN_520_0
*1006 FE_RN_521_0
*1007 FE_RN_524_0
*1008 FE_RN_525_0
*1009 FE_RN_529_0
*1010 FE_RN_530_0
*1011 FE_RN_531_0
*1012 FE_RN_532_0
*1013 FE_RN_539_0
*1014 FE_RN_540_0
*1015 FE_RN_541_0
*1016 FE_RN_542_0
*1017 FE_RN_543_0
*1018 FE_RN_544_0
*1019 FE_RN_545_0
*1020 FE_RN_546_0
*1021 FE_RN_547_0
*1022 FE_RN_548_0
*1023 FE_RN_549_0
*1024 FE_RN_550_0
*1025 FE_RN_551_0
*1026 FE_RN_552_0
*1027 FE_RN_553_0
*1028 FE_RN_554_0
*1029 FE_RN_555_0
*1030 FE_RN_556_0
*1031 FE_RN_557_0
*1032 FE_RN_558_0
*1033 FE_RN_559_0
*1034 FE_RN_560_0
*1035 FE_RN_561_0
*1036 FE_RN_562_0
*1037 FE_RN_563_0
*1038 FE_RN_564_0
*1039 FE_RN_565_0
*1040 FE_RN_566_0
*1041 FE_RN_567_0
*1042 FE_RN_572_0
*1043 FE_RN_573_0
*1044 FE_RN_574_0
*1045 FE_RN_576_0
*1046 FE_RN_577_0
*1047 FE_RN_578_0
*1048 FE_RN_579_0
*1049 FE_RN_580_0
*1050 FE_RN_581_0
*1051 FE_RN_582_0
*1052 FE_RN_583_0
*1053 FE_RN_584_0
*1054 FE_RN_588_0
*1055 FE_RN_589_0
*1056 FE_RN_590_0
*1057 FE_RN_591_0
*1058 FE_RN_595_0
*1059 FE_RN_596_0
*1060 FE_RN_597_0
*1061 FE_RN_598_0
*1062 FE_RN_599_0
*1063 FE_RN_601_0
*1064 FE_RN_602_0
*1065 FE_RN_603_0
*1066 FE_RN_604_0
*1067 FE_RN_605_0
*1068 FE_RN_606_0
*1069 FE_RN_607_0
*1070 FE_RN_608_0
*1071 FE_RN_609_0
*1072 FE_RN_613_0
*1073 FE_RN_614_0
*1074 FE_RN_615_0
*1075 FE_RN_616_0
*1076 FE_RN_617_0
*1077 FE_RN_618_0
*1078 FE_RN_619_0
*1079 FE_RN_621_0
*1080 FE_RN_623_0
*1081 FE_RN_624_0
*1082 FE_RN_625_0
*1083 FE_RN_626_0
*1084 FE_RN_628_0
*1085 FE_RN_629_0
*1086 FE_RN_630_0
*1087 FE_RN_631_0
*1088 FE_RN_632_0
*1089 FE_RN_633_0
*1090 FE_RN_634_0
*1091 FE_RN_635_0
*1092 FE_RN_636_0
*1093 FE_RN_637_0
*1094 FE_RN_638_0
*1095 FE_RN_640_0
*1096 FE_RN_641_0
*1097 FE_RN_642_0
*1098 FE_RN_645_0
*1099 FE_RN_646_0
*1100 FE_RN_652_0
*1101 FE_RN_653_0
*1102 FE_RN_654_0
*1103 FE_RN_655_0
*1104 FE_RN_663_0
*1105 FE_RN_664_0
*1106 FE_RN_665_0
*1107 FE_RN_666_0
*1108 FE_RN_667_0
*1109 FE_RN_668_0
*1110 FE_RN_669_0
*1111 FE_RN_670_0
*1112 FE_RN_671_0
*1113 FE_RN_672_0
*1114 FE_RN_673_0
*1115 FE_RN_674_0
*1116 FE_RN_675_0
*1117 FE_RN_676_0
*1118 FE_RN_677_0
*1119 FE_RN_678_0
*1120 FE_RN_679_0
*1121 FE_RN_694_0
*1122 FE_RN_695_0
*1123 FE_RN_696_0
*1124 FE_RN_697_0
*1125 FE_RN_698_0
*1126 FE_RN_699_0
*1127 FE_RN_6_0
*1128 FE_RN_702_0
*1129 FE_RN_703_0
*1130 FE_RN_704_0
*1131 FE_RN_705_0
*1132 FE_RN_706_0
*1133 FE_RN_707_0
*1134 FE_RN_708_0
*1135 FE_RN_709_0
*1136 FE_RN_711_0
*1137 FE_RN_712_0
*1138 FE_RN_717_0
*1139 FE_RN_718_0
*1140 FE_RN_719_0
*1141 FE_RN_720_0
*1142 FE_RN_721_0
*1143 FE_RN_722_0
*1144 FE_RN_728_0
*1145 FE_RN_730_0
*1146 FE_RN_731_0
*1147 FE_RN_767_0
*1148 FE_RN_769_0
*1149 FE_RN_770_0
*1150 FE_RN_772_0
*1151 FE_RN_773_0
*1152 FE_RN_774_0
*1153 FE_RN_775_0
*1154 FE_RN_801_0
*1155 FE_RN_802_0
*1156 FE_RN_803_0
*1157 FE_RN_808_0
*1158 FE_RN_811_0
*1159 FE_RN_812_0
*1160 FE_RN_815_0
*1161 FE_RN_816_0
*1162 FE_RN_817_0
*1163 FE_RN_818_0
*1164 FE_RN_819_0
*1165 FE_RN_820_0
*1166 FE_RN_821_0
*1167 FE_RN_822_0
*1168 FE_RN_824_0
*1169 FE_RN_825_0
*1170 FE_RN_826_0
*1171 FE_RN_827_0
*1172 FE_RN_828_0
*1173 FE_RN_829_0
*1174 FE_RN_830_0
*1175 FE_RN_831_0
*1176 FE_RN_832_0
*1177 FE_RN_833_0
*1178 FE_RN_834_0
*1179 FE_RN_835_0
*1180 FE_RN_836_0
*1181 FE_RN_838_0
*1182 FE_RN_839_0
*1183 FE_RN_840_0
*1184 FE_RN_847_0
*1185 FE_RN_849_0
*1186 FE_RN_851_0
*1187 FE_RN_852_0
*1188 FE_RN_854_0
*1189 FE_RN_855_0
*1190 FE_RN_856_0
*1191 FE_RN_857_0
*1192 FE_RN_858_0
*1193 FE_RN_859_0
*1194 FE_RN_861_0
*1195 FE_RN_864_0
*1196 FE_RN_865_0
*1197 FE_RN_866_0
*1198 FE_RN_869_0
*1199 FE_RN_870_0
*1200 FE_RN_871_0
*1201 FE_RN_872_0
*1202 FE_RN_874_0
*1203 FE_RN_875_0
*1204 FE_RN_876_0
*1205 FE_RN_877_0
*1206 FE_RN_883_0
*1207 FE_RN_884_0
*1208 FE_RN_885_0
*1209 FE_RN_886_0
*1210 FE_RN_887_0
*1211 FE_RN_888_0
*1212 FE_RN_889_0
*1213 FE_RN_890_0
*1214 FE_RN_891_0
*1215 FE_RN_892_0
*1216 FE_RN_893_0
*1217 FE_RN_894_0
*1218 FE_RN_895_0
*1219 FE_RN_896_0
*1220 FE_RN_897_0
*1221 FE_RN_898_0
*1222 FE_RN_899_0
*1223 FE_RN_8_0
*1224 FE_RN_900_0
*1225 FE_RN_901_0
*1226 FE_RN_902_0
*1227 FE_RN_903_0
*1228 FE_RN_904_0
*1229 FE_RN_905_0
*1230 FE_RN_906_0
*1231 FE_RN_907_0
*1232 FE_RN_908_0
*1233 FE_RN_909_0
*1234 FE_RN_910_0
*1235 FE_RN_911_0
*1236 FE_RN_912_0
*1237 FE_RN_913_0
*1238 FE_RN_914_0
*1239 FE_RN_915_0
*1240 FE_RN_916_0
*1241 FE_RN_917_0
*1242 FE_RN_918_0
*1243 FE_RN_919_0
*1244 FE_RN_920_0
*1245 FE_RN_921_0
*1246 FE_RN_922_0
*1247 FE_RN_923_0
*1248 FE_RN_924_0
*1249 FE_RN_925_0
*1250 FE_RN_926_0
*1251 FE_RN_927_0
*1252 FE_RN_930_0
*1253 FE_RN_931_0
*1254 FE_RN_932_0
*1255 FE_RN_935_0
*1256 FE_RN_936_0
*1257 FE_RN_937_0
*1258 FE_RN_938_0
*1259 FE_RN_939_0
*1260 FE_RN_940_0
*1261 FE_RN_941_0
*1262 FE_RN_942_0
*1263 FE_RN_943_0
*1264 FE_RN_944_0
*1265 FE_RN_945_0
*1266 FE_RN_946_0
*1267 FE_RN_947_0
*1268 FE_RN_948_0
*1269 FE_RN_949_0
*1270 FE_RN_950_0
*1271 FE_RN_951_0
*1272 FE_RN_952_0
*1273 FE_RN_953_0
*1274 FE_RN_954_0
*1275 FE_RN_955_0
*1276 FE_RN_956_0
*1277 FE_RN_957_0
*1278 FE_RN_958_0
*1279 FE_RN_959_0
*1280 FE_RN_960_0
*1281 FE_RN_961_0
*1282 FE_RN_962_0
*1283 FE_RN_964_0
*1284 FE_RN_965_0
*1285 FE_RN_966_0
*1286 FE_RN_969_0
*1287 FE_RN_970_0
*1288 FE_RN_971_0
*1289 FE_RN_972_0
*1290 FE_RN_973_0
*1291 FE_RN_974_0
*1292 FE_RN_976_0
*1293 FE_RN_977_0
*1294 FE_RN_978_0
*1295 FE_RN_982_0
*1296 FE_RN_983_0
*1297 FE_RN_984_0
*1298 FE_RN_985_0
*1299 FE_RN_986_0
*1300 FE_RN_987_0
*1301 FE_RN_988_0
*1302 FE_RN_990_0
*1303 FE_RN_991_0
*1304 FE_RN_992_0
*1305 FE_RN_993_0
*1306 FE_RN_994_0
*1307 FE_RN_998_0
*1308 FE_RN_9_0
*1309 UNCONNECTED
*1310 UNCONNECTED0
*1311 UNCONNECTED1
*1312 UNCONNECTED3
*1313 UNCONNECTED7
*1314 UNCONNECTED8
*1315 UNCONNECTED9
*1316 iA0[0]
*1317 iA0[1]
*1318 iA0[2]
*1319 iA0[3]
*1320 iA0[4]
*1321 iA0[5]
*1322 iA0[6]
*1323 iA0[7]
*1324 iA1[0]
*1325 iA1[1]
*1326 iA1[2]
*1327 iA1[3]
*1328 iA1[4]
*1329 iA1[5]
*1330 iA1[6]
*1331 iA1[7]
*1332 iB0[0]
*1333 iB0[1]
*1334 iB0[2]
*1335 iB0[3]
*1336 iB0[4]
*1337 iB0[5]
*1338 iB0[6]
*1339 iB0[7]
*1340 iB1[0]
*1341 iB1[1]
*1342 iB1[2]
*1343 iB1[3]
*1344 iB1[4]
*1345 iB1[5]
*1346 iB1[6]
*1347 iB1[7]
*1348 iCLK
*1349 iCLK__L1_N0
*1350 iCLK__L2_N0
*1351 iRST_N
*1352 iSEL
*1353 n_1
*1354 n_10015
*1355 n_10018
*1356 n_10020
*1357 n_10029
*1358 n_10031
*1359 n_10032
*1360 n_10046
*1361 n_10047
*1362 n_10049
*1363 n_10053
*1364 n_10054
*1365 n_1006
*1366 n_10062
*1367 n_10063
*1368 n_10064
*1369 n_10067
*1370 n_1007
*1371 n_10070
*1372 n_10071
*1373 n_10072
*1374 n_10075
*1375 n_10076
*1376 n_10083
*1377 n_10084
*1378 n_1009
*1379 n_10091
*1380 n_10096
*1381 n_10097
*1382 n_10098
*1383 n_10099
*1384 n_10129
*1385 n_10150
*1386 n_10151
*1387 n_10152
*1388 n_10154
*1389 n_10155
*1390 n_10156
*1391 n_10159
*1392 n_10160
*1393 n_10162
*1394 n_10170
*1395 n_10172
*1396 n_10173
*1397 n_10178
*1398 n_10180
*1399 n_10198
*1400 n_10199
*1401 n_1020
*1402 n_10200
*1403 n_10201
*1404 n_10207
*1405 n_10208
*1406 n_10213
*1407 n_10214
*1408 n_10215
*1409 n_10216
*1410 n_10217
*1411 n_10219
*1412 n_10220
*1413 n_10221
*1414 n_10222
*1415 n_10223
*1416 n_10224
*1417 n_10225
*1418 n_10226
*1419 n_10227
*1420 n_10232
*1421 n_10234
*1422 n_10235
*1423 n_10237
*1424 n_10238
*1425 n_10243
*1426 n_10244
*1427 n_10246
*1428 n_10248
*1429 n_10249
*1430 n_10250
*1431 n_10254
*1432 n_10260
*1433 n_10261
*1434 n_10262
*1435 n_10264
*1436 n_10266
*1437 n_10268
*1438 n_10269
*1439 n_10273
*1440 n_10274
*1441 n_10275
*1442 n_10276
*1443 n_10279
*1444 n_10280
*1445 n_10281
*1446 n_10282
*1447 n_10283
*1448 n_10304
*1449 n_10305
*1450 n_10306
*1451 n_10308
*1452 n_10309
*1453 n_10310
*1454 n_10311
*1455 n_10312
*1456 n_10313
*1457 n_10314
*1458 n_10316
*1459 n_1032
*1460 n_10342
*1461 n_10343
*1462 n_10347
*1463 n_10358
*1464 n_10359
*1465 n_10360
*1466 n_10361
*1467 n_10362
*1468 n_10365
*1469 n_1037
*1470 n_1038
*1471 n_10380
*1472 n_10382
*1473 n_10386
*1474 n_10387
*1475 n_10388
*1476 n_10389
*1477 n_10390
*1478 n_10391
*1479 n_10392
*1480 n_10404
*1481 n_10405
*1482 n_10409
*1483 n_1044
*1484 n_10442
*1485 n_10444
*1486 n_10445
*1487 n_10446
*1488 n_10447
*1489 n_10448
*1490 n_10453
*1491 n_10456
*1492 n_10457
*1493 n_10459
*1494 n_10460
*1495 n_10486
*1496 n_10488
*1497 n_105
*1498 n_10500
*1499 n_10501
*1500 n_10503
*1501 n_10507
*1502 n_10509
*1503 n_10510
*1504 n_10511
*1505 n_10516
*1506 n_1052
*1507 n_10520
*1508 n_10521
*1509 n_10522
*1510 n_10523
*1511 n_10524
*1512 n_10525
*1513 n_10526
*1514 n_10527
*1515 n_1053
*1516 n_10530
*1517 n_10537
*1518 n_10538
*1519 n_10539
*1520 n_10573
*1521 n_10575
*1522 n_10576
*1523 n_10577
*1524 n_10579
*1525 n_1058
*1526 n_10583
*1527 n_10584
*1528 n_1059
*1529 n_10620
*1530 n_10625
*1531 n_10626
*1532 n_10627
*1533 n_10630
*1534 n_10631
*1535 n_10636
*1536 n_10637
*1537 n_10638
*1538 n_10639
*1539 n_1064
*1540 n_10640
*1541 n_10641
*1542 n_10642
*1543 n_10647
*1544 n_10648
*1545 n_10649
*1546 n_10650
*1547 n_10651
*1548 n_10652
*1549 n_10680
*1550 n_10681
*1551 n_10682
*1552 n_10683
*1553 n_10684
*1554 n_10685
*1555 n_1069
*1556 n_10716
*1557 n_10726
*1558 n_10727
*1559 n_10728
*1560 n_1073
*1561 n_10730
*1562 n_10731
*1563 n_10732
*1564 n_10733
*1565 n_10734
*1566 n_10735
*1567 n_10736
*1568 n_10738
*1569 n_10740
*1570 n_10741
*1571 n_10742
*1572 n_10743
*1573 n_10744
*1574 n_10746
*1575 n_10747
*1576 n_10748
*1577 n_10750
*1578 n_10751
*1579 n_10752
*1580 n_10753
*1581 n_10754
*1582 n_10755
*1583 n_10756
*1584 n_10758
*1585 n_10759
*1586 n_10764
*1587 n_10767
*1588 n_10768
*1589 n_1077
*1590 n_10772
*1591 n_10773
*1592 n_1078
*1593 n_1080
*1594 n_10805
*1595 n_10806
*1596 n_10807
*1597 n_10820
*1598 n_10822
*1599 n_10823
*1600 n_10825
*1601 n_10826
*1602 n_10827
*1603 n_10828
*1604 n_10830
*1605 n_10831
*1606 n_10833
*1607 n_10834